#======================================================================

# CRYSTAL DATA

#----------------------------------------------------------------------

data_VESTA_phase_1


_chemical_name_common                  ''
_cell_length_a                         25.88500
_cell_length_b                         25.88500
_cell_length_c                         6.80580
_cell_angle_alpha                      90
_cell_angle_beta                       90
_cell_angle_gamma                      120
_space_group_name_H-M_alt              'P 1'
_space_group_IT_number                 1

loop_
_space_group_symop_operation_xyz
   'x, y, z'

loop_
   _atom_site_label
   _atom_site_occupancy
   _atom_site_fract_x
   _atom_site_fract_y
   _atom_site_fract_z
   _atom_site_adp_type
   _atom_site_B_iso_or_equiv
   _atom_site_type_symbol
   C1         1.0     0.086900      0.347400      0.594700     Biso  1.000000 C
   C1         1.0     0.913100      0.652600      0.405300     Biso  1.000000 C
   C1         1.0     0.652600      0.739500      0.594700     Biso  1.000000 C
   C1         1.0     0.347400      0.260500      0.405300     Biso  1.000000 C
   C1         1.0     0.260500      0.913100      0.594700     Biso  1.000000 C
   C1         1.0     0.739500      0.086900      0.405300     Biso  1.000000 C
   C1         1.0     0.753567      0.680733      0.928033     Biso  1.000000 C
   C1         1.0     0.579767      0.985933      0.738633     Biso  1.000000 C
   C1         1.0     0.319267      0.072833      0.928033     Biso  1.000000 C
   C1         1.0     0.014067      0.593833      0.738633     Biso  1.000000 C
   C1         1.0     0.927167      0.246433      0.928033     Biso  1.000000 C
   C1         1.0     0.406167      0.420233      0.738633     Biso  1.000000 C
   C1         1.0     0.420233      0.014067      0.261367     Biso  1.000000 C
   C1         1.0     0.246433      0.319267      0.071967     Biso  1.000000 C
   C1         1.0     0.985933      0.406167      0.261367     Biso  1.000000 C
   C1         1.0     0.680733      0.927167      0.071967     Biso  1.000000 C
   C1         1.0     0.593833      0.579767      0.261367     Biso  1.000000 C
   C1         1.0     0.072833      0.753567      0.071967     Biso  1.000000 C
   C2         1.0     0.126400      0.339400      0.453700     Biso  1.000000 C
   C2         1.0     0.873600      0.660600      0.546300     Biso  1.000000 C
   C2         1.0     0.660600      0.787000      0.453700     Biso  1.000000 C
   C2         1.0     0.339400      0.213000      0.546300     Biso  1.000000 C
   C2         1.0     0.213000      0.873600      0.453700     Biso  1.000000 C
   C2         1.0     0.787000      0.126400      0.546300     Biso  1.000000 C
   C2         1.0     0.793067      0.672733      0.787033     Biso  1.000000 C
   C2         1.0     0.540267      0.993933      0.879633     Biso  1.000000 C
   C2         1.0     0.327267      0.120333      0.787033     Biso  1.000000 C
   C2         1.0     0.006067      0.546333      0.879633     Biso  1.000000 C
   C2         1.0     0.879667      0.206933      0.787033     Biso  1.000000 C
   C2         1.0     0.453667      0.459733      0.879633     Biso  1.000000 C
   C2         1.0     0.459733      0.006067      0.120367     Biso  1.000000 C
   C2         1.0     0.206933      0.327267      0.212967     Biso  1.000000 C
   C2         1.0     0.993933      0.453667      0.120367     Biso  1.000000 C
   C2         1.0     0.672733      0.879667      0.212967     Biso  1.000000 C
   C2         1.0     0.546333      0.540267      0.120367     Biso  1.000000 C
   C2         1.0     0.120333      0.793067      0.212967     Biso  1.000000 C
   C3         1.0     0.011100      0.455300      0.923700     Biso  1.000000 C
   C3         1.0     0.988900      0.544700      0.076300     Biso  1.000000 C
   C3         1.0     0.544700      0.555800      0.923700     Biso  1.000000 C
   C3         1.0     0.455300      0.444200      0.076300     Biso  1.000000 C
   C3         1.0     0.444200      0.988900      0.923700     Biso  1.000000 C
   C3         1.0     0.555800      0.011100      0.076300     Biso  1.000000 C
   C3         1.0     0.677767      0.788633      0.257033     Biso  1.000000 C
   C3         1.0     0.655567      0.878033      0.409633     Biso  1.000000 C
   C3         1.0     0.211367      0.889133      0.257033     Biso  1.000000 C
   C3         1.0     0.121967      0.777533      0.409633     Biso  1.000000 C
   C3         1.0     0.110867      0.322233      0.257033     Biso  1.000000 C
   C3         1.0     0.222467      0.344433      0.409633     Biso  1.000000 C
   C3         1.0     0.344433      0.121967      0.590367     Biso  1.000000 C
   C3         1.0     0.322233      0.211367      0.742967     Biso  1.000000 C
   C3         1.0     0.878033      0.222467      0.590367     Biso  1.000000 C
   C3         1.0     0.788633      0.110867      0.742967     Biso  1.000000 C
   C3         1.0     0.777533      0.655567      0.590367     Biso  1.000000 C
   C3         1.0     0.889133      0.677767      0.742967     Biso  1.000000 C
   C4         1.0     0.016900      0.501800      0.808190     Biso  1.000000 C
   C4         1.0     0.983100      0.498200      0.191810     Biso  1.000000 C
   C4         1.0     0.498200      0.515100      0.808190     Biso  1.000000 C
   C4         1.0     0.501800      0.484900      0.191810     Biso  1.000000 C
   C4         1.0     0.484900      0.983100      0.808190     Biso  1.000000 C
   C4         1.0     0.515100      0.016900      0.191810     Biso  1.000000 C
   C4         1.0     0.683567      0.835133      0.141523     Biso  1.000000 C
   C4         1.0     0.649767      0.831533      0.525143     Biso  1.000000 C
   C4         1.0     0.164867      0.848433      0.141523     Biso  1.000000 C
   C4         1.0     0.168467      0.818233      0.525143     Biso  1.000000 C
   C4         1.0     0.151567      0.316433      0.141523     Biso  1.000000 C
   C4         1.0     0.181767      0.350233      0.525143     Biso  1.000000 C
   C4         1.0     0.350233      0.168467      0.474857     Biso  1.000000 C
   C4         1.0     0.316433      0.164867      0.858477     Biso  1.000000 C
   C4         1.0     0.831533      0.181767      0.474857     Biso  1.000000 C
   C4         1.0     0.835133      0.151567      0.858477     Biso  1.000000 C
   C4         1.0     0.818233      0.649767      0.474857     Biso  1.000000 C
   C4         1.0     0.848433      0.683567      0.858477     Biso  1.000000 C
   H1         1.0     0.028400      0.503700      0.677800     Biso  1.000000 H
   H1         1.0     0.971600      0.496300      0.322200     Biso  1.000000 H
   H1         1.0     0.496300      0.524700      0.677800     Biso  1.000000 H
   H1         1.0     0.503700      0.475300      0.322200     Biso  1.000000 H
   H1         1.0     0.475300      0.971600      0.677800     Biso  1.000000 H
   H1         1.0     0.524700      0.028400      0.322200     Biso  1.000000 H
   H1         1.0     0.695067      0.837033      0.011133     Biso  1.000000 H
   H1         1.0     0.638267      0.829633      0.655533     Biso  1.000000 H
   H1         1.0     0.162967      0.858033      0.011133     Biso  1.000000 H
   H1         1.0     0.170367      0.808633      0.655533     Biso  1.000000 H
   H1         1.0     0.141967      0.304933      0.011133     Biso  1.000000 H
   H1         1.0     0.191367      0.361733      0.655533     Biso  1.000000 H
   H1         1.0     0.361733      0.170367      0.344467     Biso  1.000000 H
   H1         1.0     0.304933      0.162967      0.988867     Biso  1.000000 H
   H1         1.0     0.829633      0.191367      0.344467     Biso  1.000000 H
   H1         1.0     0.837033      0.141967      0.988867     Biso  1.000000 H
   H1         1.0     0.808633      0.638267      0.344467     Biso  1.000000 H
   H1         1.0     0.858033      0.695067      0.988867     Biso  1.000000 H
   O1         1.0     0.104200      0.365300      0.766600     Biso  1.000000 O
   O1         1.0     0.895800      0.634700      0.233400     Biso  1.000000 O
   O1         1.0     0.634700      0.738900      0.766600     Biso  1.000000 O
   O1         1.0     0.365300      0.261100      0.233400     Biso  1.000000 O
   O1         1.0     0.261100      0.895800      0.766600     Biso  1.000000 O
   O1         1.0     0.738900      0.104200      0.233400     Biso  1.000000 O
   O1         1.0     0.770867      0.698633      0.099933     Biso  1.000000 O
   O1         1.0     0.562467      0.968033      0.566733     Biso  1.000000 O
   O1         1.0     0.301367      0.072233      0.099933     Biso  1.000000 O
   O1         1.0     0.031967      0.594433      0.566733     Biso  1.000000 O
   O1         1.0     0.927767      0.229133      0.099933     Biso  1.000000 O
   O1         1.0     0.405567      0.437533      0.566733     Biso  1.000000 O
   O1         1.0     0.437533      0.031967      0.433267     Biso  1.000000 O
   O1         1.0     0.229133      0.301367      0.900067     Biso  1.000000 O
   O1         1.0     0.968033      0.405567      0.433267     Biso  1.000000 O
   O1         1.0     0.698633      0.927767      0.900067     Biso  1.000000 O
   O1         1.0     0.594433      0.562467      0.433267     Biso  1.000000 O
   O1         1.0     0.072233      0.770867      0.900067     Biso  1.000000 O
   O2         1.0     0.022100      0.414400      0.838700     Biso  1.000000 O
   O2         1.0     0.977900      0.585600      0.161300     Biso  1.000000 O
   O2         1.0     0.585600      0.607700      0.838700     Biso  1.000000 O
   O2         1.0     0.414400      0.392300      0.161300     Biso  1.000000 O
   O2         1.0     0.392300      0.977900      0.838700     Biso  1.000000 O
   O2         1.0     0.607700      0.022100      0.161300     Biso  1.000000 O
   O2         1.0     0.688767      0.747733      0.172033     Biso  1.000000 O
   O2         1.0     0.644567      0.918933      0.494633     Biso  1.000000 O
   O2         1.0     0.252267      0.941033      0.172033     Biso  1.000000 O
   O2         1.0     0.081067      0.725633      0.494633     Biso  1.000000 O
   O2         1.0     0.058967      0.311233      0.172033     Biso  1.000000 O
   O2         1.0     0.274367      0.355433      0.494633     Biso  1.000000 O
   O2         1.0     0.355433      0.081067      0.505367     Biso  1.000000 O
   O2         1.0     0.311233      0.252267      0.827967     Biso  1.000000 O
   O2         1.0     0.918933      0.274367      0.505367     Biso  1.000000 O
   O2         1.0     0.747733      0.058967      0.827967     Biso  1.000000 O
   O2         1.0     0.725633      0.644567      0.505367     Biso  1.000000 O
   O2         1.0     0.941033      0.688767      0.827967     Biso  1.000000 O
   Co1        1.0     0.048500      0.362110      0.975420     Biso  1.000000 Co
   Co1        1.0     0.951500      0.637890      0.024580     Biso  1.000000 Co
   Co1        1.0     0.637890      0.686390      0.975420     Biso  1.000000 Co
   Co1        1.0     0.362110      0.313610      0.024580     Biso  1.000000 Co
   Co1        1.0     0.313610      0.951500      0.975420     Biso  1.000000 Co
   Co1        1.0     0.686390      0.048500      0.024580     Biso  1.000000 Co
   Co1        1.0     0.715167      0.695443      0.308753     Biso  1.000000 Co
   Co1        1.0     0.618167      0.971223      0.357913     Biso  1.000000 Co
   Co1        1.0     0.304557      0.019723      0.308753     Biso  1.000000 Co
   Co1        1.0     0.028777      0.646943      0.357913     Biso  1.000000 Co
   Co1        1.0     0.980277      0.284833      0.308753     Biso  1.000000 Co
   Co1        1.0     0.353057      0.381833      0.357913     Biso  1.000000 Co
   Co1        1.0     0.381833      0.028777      0.642087     Biso  1.000000 Co
   Co1        1.0     0.284833      0.304557      0.691247     Biso  1.000000 Co
   Co1        1.0     0.971223      0.353057      0.642087     Biso  1.000000 Co
   Co1        1.0     0.695443      0.980277      0.691247     Biso  1.000000 Co
   Co1        1.0     0.646943      0.618167      0.642087     Biso  1.000000 Co
   Co1        1.0     0.019723      0.715167      0.691247     Biso  1.000000 Co
   O3         1.0     0.329130      0.032570      0.865760     Biso  1.000000 O
   O3         1.0     0.670870      0.967430      0.134240     Biso  1.000000 O
   O3         1.0     0.967430      0.296560      0.865760     Biso  1.000000 O
   O3         1.0     0.032570      0.703440      0.134240     Biso  1.000000 O
   O3         1.0     0.703440      0.670870      0.865760     Biso  1.000000 O
   O3         1.0     0.296560      0.329130      0.134240     Biso  1.000000 O
   O3         1.0     0.995797      0.365903      0.199093     Biso  1.000000 O
   O3         1.0     0.337537      0.300763      0.467573     Biso  1.000000 O
   O3         1.0     0.634097      0.629893      0.199093     Biso  1.000000 O
   O3         1.0     0.699237      0.036773      0.467573     Biso  1.000000 O
   O3         1.0     0.370107      0.004203      0.199093     Biso  1.000000 O
   O3         1.0     0.963227      0.662463      0.467573     Biso  1.000000 O
   O3         1.0     0.662463      0.699237      0.532427     Biso  1.000000 O
   O3         1.0     0.004203      0.634097      0.800907     Biso  1.000000 O
   O3         1.0     0.300763      0.963227      0.532427     Biso  1.000000 O
   O3         1.0     0.365903      0.370107      0.800907     Biso  1.000000 O
   O3         1.0     0.036773      0.337537      0.532427     Biso  1.000000 O
   O3         1.0     0.629893      0.995797      0.800907     Biso  1.000000 O
