#======================================================================

# CRYSTAL DATA

#----------------------------------------------------------------------

data_VESTA_phase_1


_chemical_name_common                  ''
_cell_length_a                         10.45950
_cell_length_b                         14.39200
_cell_length_c                         14.76340
_cell_angle_alpha                      69.60800
_cell_angle_beta                       82.47600
_cell_angle_gamma                      88.04300
_space_group_name_H-M_alt              'P 1'
_space_group_IT_number                 1

loop_
_space_group_symop_operation_xyz
   'x, y, z'

loop_
   _atom_site_label
   _atom_site_occupancy
   _atom_site_fract_x
   _atom_site_fract_y
   _atom_site_fract_z
   _atom_site_adp_type
   _atom_site_B_iso_or_equiv
   _atom_site_type_symbol
   Cd2        1.0     0.914590      0.887670      0.811520     Biso  1.000000 Cd
   Cd2        1.0     0.085410      0.112330      0.188480     Biso  1.000000 Cd
   O1         1.0     0.757400      0.813800      0.942300     Biso  1.000000 O
   O1         1.0     0.242600      0.186200      0.057700     Biso  1.000000 O
   O2         1.0     0.939900      0.857400      0.976850     Biso  1.000000 O
   O2         1.0     0.060100      0.142600      0.023150     Biso  1.000000 O
   O3         1.0     0.882000      0.092700      0.884300     Biso  1.000000 O
   O3         1.0     0.118000      0.907300      0.115700     Biso  1.000000 O
   O4         1.0     0.890100      0.047300      0.753000     Biso  1.000000 O
   O4         1.0     0.109900      0.952700      0.247000     Biso  1.000000 O
   O5         1.0     0.094000      0.891700      0.700300     Biso  1.000000 O
   O5         1.0     0.906000      0.108300      0.299700     Biso  1.000000 O
   O6         1.0     0.036400      0.748100      0.809800     Biso  1.000000 O
   O6         1.0     0.963600      0.251900      0.190200     Biso  1.000000 O
   C1         1.0     0.665700      0.621600      0.414100     Biso  1.000000 C
   C1         1.0     0.334300      0.378400      0.585900     Biso  1.000000 C
   C2         1.0     0.725400      0.536700      0.470600     Biso  1.000000 C
   C2         1.0     0.274600      0.463300      0.529400     Biso  1.000000 C
   H2         1.0     0.796300      0.509700      0.441200     Biso  1.000000 H
   H2         1.0     0.203700      0.490300      0.558800     Biso  1.000000 H
   C3         1.0     0.682500      0.491100      0.569600     Biso  1.000000 C
   C3         1.0     0.317500      0.508900      0.430400     Biso  1.000000 C
   C4         1.0     0.581700      0.533700      0.612500     Biso  1.000000 C
   C4         1.0     0.418300      0.466300      0.387500     Biso  1.000000 C
   H4         1.0     0.553600      0.504100      0.680200     Biso  1.000000 H
   H4         1.0     0.446400      0.495900      0.319800     Biso  1.000000 H
   C5         1.0     0.521500      0.618900      0.558100     Biso  1.000000 C
   C5         1.0     0.478500      0.381100      0.441900     Biso  1.000000 C
   C6         1.0     0.562500      0.661100      0.458600     Biso  1.000000 C
   C6         1.0     0.437500      0.338900      0.541400     Biso  1.000000 C
   H6         1.0     0.519600      0.717600      0.420400     Biso  1.000000 H
   H6         1.0     0.480400      0.282400      0.579600     Biso  1.000000 H
   C7         1.0     0.708200      0.669400      0.308400     Biso  1.000000 C
   C7         1.0     0.291800      0.330600      0.691600     Biso  1.000000 C
   C8         1.0     0.838100      0.687400      0.272600     Biso  1.000000 C
   C8         1.0     0.161900      0.312600      0.727400     Biso  1.000000 C
   H8         1.0     0.901200      0.665800      0.316200     Biso  1.000000 H
   H8         1.0     0.098800      0.334200      0.683800     Biso  1.000000 H
   C9         1.0     0.876900      0.736200      0.174700     Biso  1.000000 C
   C9         1.0     0.123100      0.263800      0.825300     Biso  1.000000 C
   H9         1.0     0.965800      0.750300      0.151900     Biso  1.000000 H
   H9         1.0     0.034200      0.249700      0.848100     Biso  1.000000 H
   C10        1.0     0.786300      0.765000      0.109100     Biso  1.000000 C
   C10        1.0     0.213700      0.235000      0.890900     Biso  1.000000 C
   C11        1.0     0.656800      0.744400      0.143800     Biso  1.000000 C
   C11        1.0     0.343200      0.255600      0.856200     Biso  1.000000 C
   H11        1.0     0.594500      0.761800      0.099500     Biso  1.000000 H
   H11        1.0     0.405500      0.238200      0.900500     Biso  1.000000 H
   C12        1.0     0.617800      0.698600      0.242600     Biso  1.000000 C
   C12        1.0     0.382200      0.301400      0.757400     Biso  1.000000 C
   H12        1.0     0.528500      0.687000      0.265600     Biso  1.000000 H
   H12        1.0     0.471500      0.313000      0.734400     Biso  1.000000 H
   C13        1.0     0.737700      0.395400      0.627300     Biso  1.000000 C
   C13        1.0     0.262300      0.604600      0.372700     Biso  1.000000 C
   C14        1.0     0.773300      0.324600      0.584700     Biso  1.000000 C
   C14        1.0     0.226700      0.675400      0.415300     Biso  1.000000 C
   H14        1.0     0.769300      0.339700      0.517200     Biso  1.000000 H
   H14        1.0     0.230700      0.660300      0.482800     Biso  1.000000 H
   C15        1.0     0.814700      0.231900      0.640000     Biso  1.000000 C
   C15        1.0     0.185300      0.768100      0.360000     Biso  1.000000 C
   H15        1.0     0.837200      0.183900      0.610100     Biso  1.000000 H
   H15        1.0     0.162800      0.816100      0.389900     Biso  1.000000 H
   C16        1.0     0.823600      0.208500      0.738400     Biso  1.000000 C
   C16        1.0     0.176400      0.791500      0.261600     Biso  1.000000 C
   C17        1.0     0.789800      0.279300      0.781000     Biso  1.000000 C
   C17        1.0     0.210200      0.720700      0.219000     Biso  1.000000 C
   H17        1.0     0.796200      0.264500      0.848200     Biso  1.000000 H
   H17        1.0     0.203800      0.735500      0.151800     Biso  1.000000 H
   C18        1.0     0.746500      0.371900      0.726100     Biso  1.000000 C
   C18        1.0     0.253500      0.628100      0.273900     Biso  1.000000 C
   H18        1.0     0.722800      0.419500      0.756400     Biso  1.000000 H
   H18        1.0     0.277200      0.580500      0.243600     Biso  1.000000 H
   C19        1.0     0.415700      0.664800      0.604900     Biso  1.000000 C
   C19        1.0     0.584300      0.335200      0.395100     Biso  1.000000 C
   C20        1.0     0.329400      0.607700      0.682600     Biso  1.000000 C
   C20        1.0     0.670600      0.392300      0.317400     Biso  1.000000 C
   H20        1.0     0.338400      0.537700      0.707100     Biso  1.000000 H
   H20        1.0     0.661600      0.462300      0.292900     Biso  1.000000 H
   C21        1.0     0.230400      0.651500      0.725100     Biso  1.000000 C
   C21        1.0     0.769600      0.348500      0.274900     Biso  1.000000 C
   H21        1.0     0.173000      0.611200      0.778700     Biso  1.000000 H
   H21        1.0     0.827000      0.388800      0.221300     Biso  1.000000 H
   C22        1.0     0.214200      0.752600      0.690700     Biso  1.000000 C
   C22        1.0     0.785800      0.247400      0.309300     Biso  1.000000 C
   C23        1.0     0.298800      0.810500      0.613000     Biso  1.000000 C
   C23        1.0     0.701200      0.189500      0.387000     Biso  1.000000 C
   H23        1.0     0.288200      0.880400      0.588100     Biso  1.000000 H
   H23        1.0     0.711800      0.119600      0.411900     Biso  1.000000 H
   C24        1.0     0.399500      0.767100      0.570900     Biso  1.000000 C
   C24        1.0     0.600500      0.232900      0.429100     Biso  1.000000 C
   H24        1.0     0.457900      0.807800      0.518200     Biso  1.000000 H
   H24        1.0     0.542100      0.192200      0.481800     Biso  1.000000 H
   C25        1.0     0.829100      0.815400      0.003500     Biso  1.000000 C
   C25        1.0     0.170900      0.184600      0.996500     Biso  1.000000 C
   C26        1.0     0.870200      0.108000      0.797200     Biso  1.000000 C
   C26        1.0     0.129800      0.892000      0.202800     Biso  1.000000 C
   C27        1.0     0.108000      0.800200      0.737200     Biso  1.000000 C
   C27        1.0     0.892000      0.199800      0.262800     Biso  1.000000 C
   Cd1        1.0     0.000000      0.000000      0.000000     Biso  1.000000 Cd
