#======================================================================

# CRYSTAL DATA

#----------------------------------------------------------------------

data_VESTA_phase_1


_chemical_name_common                  ''
_cell_length_a                         28.12700
_cell_length_b                         28.12700
_cell_length_c                         8.87900
_cell_angle_alpha                      90
_cell_angle_beta                       90
_cell_angle_gamma                      90
_space_group_name_H-M_alt              'P 1'
_space_group_IT_number                 1

loop_
_space_group_symop_operation_xyz
   'x, y, z'

loop_
   _atom_site_label
   _atom_site_occupancy
   _atom_site_fract_x
   _atom_site_fract_y
   _atom_site_fract_z
   _atom_site_adp_type
   _atom_site_B_iso_or_equiv
   _atom_site_type_symbol
   C1         1.0     0.000000      0.250000      0.125000     Biso  1.000000 C
   C1         1.0     0.000000      0.750000      0.875000     Biso  1.000000 C
   C1         1.0     0.500000      0.750000      0.625000     Biso  1.000000 C
   C1         1.0     0.500000      0.250000      0.375000     Biso  1.000000 C
   C2         1.0     0.461800      0.469900      0.024900     Biso  1.000000 C
   C2         1.0     0.538200      0.530100      0.975100     Biso  1.000000 C
   C2         1.0     0.038200      0.530100      0.524900     Biso  1.000000 C
   C2         1.0     0.961800      0.469900      0.475100     Biso  1.000000 C
   C2         1.0     0.280100      0.711800      0.274900     Biso  1.000000 C
   C2         1.0     0.719900      0.288200      0.725100     Biso  1.000000 C
   C2         1.0     0.219900      0.288200      0.774900     Biso  1.000000 C
   C2         1.0     0.780100      0.711800      0.225100     Biso  1.000000 C
   C2         1.0     0.961800      0.969900      0.524900     Biso  1.000000 C
   C2         1.0     0.038200      0.030100      0.475100     Biso  1.000000 C
   C2         1.0     0.538200      0.030100      0.024900     Biso  1.000000 C
   C2         1.0     0.461800      0.969900      0.975100     Biso  1.000000 C
   C2         1.0     0.780100      0.211800      0.774900     Biso  1.000000 C
   C2         1.0     0.219900      0.788200      0.225100     Biso  1.000000 C
   C2         1.0     0.719900      0.788200      0.274900     Biso  1.000000 C
   C2         1.0     0.280100      0.211800      0.725100     Biso  1.000000 C
   C3         1.0     0.493700      0.458700      0.922800     Biso  1.000000 C
   C3         1.0     0.506300      0.541300      0.077200     Biso  1.000000 C
   C3         1.0     0.006300      0.541300      0.422800     Biso  1.000000 C
   C3         1.0     0.993700      0.458700      0.577200     Biso  1.000000 C
   C3         1.0     0.291300      0.743700      0.172800     Biso  1.000000 C
   C3         1.0     0.708700      0.256300      0.827200     Biso  1.000000 C
   C3         1.0     0.208700      0.256300      0.672800     Biso  1.000000 C
   C3         1.0     0.791300      0.743700      0.327200     Biso  1.000000 C
   C3         1.0     0.993700      0.958700      0.422800     Biso  1.000000 C
   C3         1.0     0.006300      0.041300      0.577200     Biso  1.000000 C
   C3         1.0     0.506300      0.041300      0.922800     Biso  1.000000 C
   C3         1.0     0.493700      0.958700      0.077200     Biso  1.000000 C
   C3         1.0     0.791300      0.243700      0.672800     Biso  1.000000 C
   C3         1.0     0.208700      0.756300      0.327200     Biso  1.000000 C
   C3         1.0     0.708700      0.756300      0.172800     Biso  1.000000 C
   C3         1.0     0.291300      0.243700      0.827200     Biso  1.000000 C
   C4         1.0     0.486400      0.418000      0.846900     Biso  1.000000 C
   C4         1.0     0.513600      0.582000      0.153100     Biso  1.000000 C
   C4         1.0     0.013600      0.582000      0.346900     Biso  1.000000 C
   C4         1.0     0.986400      0.418000      0.653100     Biso  1.000000 C
   C4         1.0     0.332000      0.736400      0.096900     Biso  1.000000 C
   C4         1.0     0.668000      0.263600      0.903100     Biso  1.000000 C
   C4         1.0     0.168000      0.263600      0.596900     Biso  1.000000 C
   C4         1.0     0.832000      0.736400      0.403100     Biso  1.000000 C
   C4         1.0     0.986400      0.918000      0.346900     Biso  1.000000 C
   C4         1.0     0.013600      0.082000      0.653100     Biso  1.000000 C
   C4         1.0     0.513600      0.082000      0.846900     Biso  1.000000 C
   C4         1.0     0.486400      0.918000      0.153100     Biso  1.000000 C
   C4         1.0     0.832000      0.236400      0.596900     Biso  1.000000 C
   C4         1.0     0.168000      0.763600      0.403100     Biso  1.000000 C
   C4         1.0     0.668000      0.763600      0.096900     Biso  1.000000 C
   C4         1.0     0.332000      0.236400      0.903100     Biso  1.000000 C
   C5         1.0     0.532000      0.489300      0.898700     Biso  1.000000 C
   C5         1.0     0.468000      0.510700      0.101300     Biso  1.000000 C
   C5         1.0     0.968000      0.510700      0.398700     Biso  1.000000 C
   C5         1.0     0.032000      0.489300      0.601300     Biso  1.000000 C
   C5         1.0     0.260700      0.782000      0.148700     Biso  1.000000 C
   C5         1.0     0.739300      0.218000      0.851300     Biso  1.000000 C
   C5         1.0     0.239300      0.218000      0.648700     Biso  1.000000 C
   C5         1.0     0.760700      0.782000      0.351300     Biso  1.000000 C
   C5         1.0     0.032000      0.989300      0.398700     Biso  1.000000 C
   C5         1.0     0.968000      0.010700      0.601300     Biso  1.000000 C
   C5         1.0     0.468000      0.010700      0.898700     Biso  1.000000 C
   C5         1.0     0.532000      0.989300      0.101300     Biso  1.000000 C
   C5         1.0     0.760700      0.282000      0.648700     Biso  1.000000 C
   C5         1.0     0.239300      0.718000      0.351300     Biso  1.000000 C
   C5         1.0     0.739300      0.718000      0.148700     Biso  1.000000 C
   C5         1.0     0.260700      0.282000      0.851300     Biso  1.000000 C
   N6         1.0     0.516700      0.406000      0.748400     Biso  1.000000 N
   N6         1.0     0.483300      0.594000      0.251600     Biso  1.000000 N
   N6         1.0     0.983300      0.594000      0.248400     Biso  1.000000 N
   N6         1.0     0.016700      0.406000      0.751600     Biso  1.000000 N
   N6         1.0     0.344000      0.766700      0.998400     Biso  1.000000 N
   N6         1.0     0.656000      0.233300      0.001600     Biso  1.000000 N
   N6         1.0     0.156000      0.233300      0.498400     Biso  1.000000 N
   N6         1.0     0.844000      0.766700      0.501600     Biso  1.000000 N
   N6         1.0     0.016700      0.906000      0.248400     Biso  1.000000 N
   N6         1.0     0.983300      0.094000      0.751600     Biso  1.000000 N
   N6         1.0     0.483300      0.094000      0.748400     Biso  1.000000 N
   N6         1.0     0.516700      0.906000      0.251600     Biso  1.000000 N
   N6         1.0     0.844000      0.266700      0.498400     Biso  1.000000 N
   N6         1.0     0.156000      0.733300      0.501600     Biso  1.000000 N
   N6         1.0     0.656000      0.733300      0.998400     Biso  1.000000 N
   N6         1.0     0.344000      0.266700      0.001600     Biso  1.000000 N
   C7         1.0     0.511900      0.366700      0.659200     Biso  1.000000 C
   C7         1.0     0.488100      0.633300      0.340800     Biso  1.000000 C
   C7         1.0     0.988100      0.633300      0.159200     Biso  1.000000 C
   C7         1.0     0.011900      0.366700      0.840800     Biso  1.000000 C
   C7         1.0     0.383300      0.761900      0.909200     Biso  1.000000 C
   C7         1.0     0.616700      0.238100      0.090800     Biso  1.000000 C
   C7         1.0     0.116700      0.238100      0.409200     Biso  1.000000 C
   C7         1.0     0.883300      0.761900      0.590800     Biso  1.000000 C
   C7         1.0     0.011900      0.866700      0.159200     Biso  1.000000 C
   C7         1.0     0.988100      0.133300      0.840800     Biso  1.000000 C
   C7         1.0     0.488100      0.133300      0.659200     Biso  1.000000 C
   C7         1.0     0.511900      0.866700      0.340800     Biso  1.000000 C
   C7         1.0     0.883300      0.261900      0.409200     Biso  1.000000 C
   C7         1.0     0.116700      0.738100      0.590800     Biso  1.000000 C
   C7         1.0     0.616700      0.738100      0.909200     Biso  1.000000 C
   C7         1.0     0.383300      0.261900      0.090800     Biso  1.000000 C
   C8         1.0     0.551300      0.352900      0.585200     Biso  1.000000 C
   C8         1.0     0.448700      0.647100      0.414800     Biso  1.000000 C
   C8         1.0     0.948700      0.647100      0.085200     Biso  1.000000 C
   C8         1.0     0.051300      0.352900      0.914800     Biso  1.000000 C
   C8         1.0     0.397100      0.801300      0.835200     Biso  1.000000 C
   C8         1.0     0.602900      0.198700      0.164800     Biso  1.000000 C
   C8         1.0     0.102900      0.198700      0.335200     Biso  1.000000 C
   C8         1.0     0.897100      0.801300      0.664800     Biso  1.000000 C
   C8         1.0     0.051300      0.852900      0.085200     Biso  1.000000 C
   C8         1.0     0.948700      0.147100      0.914800     Biso  1.000000 C
   C8         1.0     0.448700      0.147100      0.585200     Biso  1.000000 C
   C8         1.0     0.551300      0.852900      0.414800     Biso  1.000000 C
   C8         1.0     0.897100      0.301300      0.335200     Biso  1.000000 C
   C8         1.0     0.102900      0.698700      0.664800     Biso  1.000000 C
   C8         1.0     0.602900      0.698700      0.835200     Biso  1.000000 C
   C8         1.0     0.397100      0.301300      0.164800     Biso  1.000000 C
   C9         1.0     0.548200      0.315800      0.493900     Biso  1.000000 C
   C9         1.0     0.451800      0.684200      0.506100     Biso  1.000000 C
   C9         1.0     0.951800      0.684200      0.993900     Biso  1.000000 C
   C9         1.0     0.048200      0.315800      0.006100     Biso  1.000000 C
   C9         1.0     0.434200      0.798200      0.743900     Biso  1.000000 C
   C9         1.0     0.565800      0.201800      0.256100     Biso  1.000000 C
   C9         1.0     0.065800      0.201800      0.243900     Biso  1.000000 C
   C9         1.0     0.934200      0.798200      0.756100     Biso  1.000000 C
   C9         1.0     0.048200      0.815800      0.993900     Biso  1.000000 C
   C9         1.0     0.951800      0.184200      0.006100     Biso  1.000000 C
   C9         1.0     0.451800      0.184200      0.493900     Biso  1.000000 C
   C9         1.0     0.548200      0.815800      0.506100     Biso  1.000000 C
   C9         1.0     0.934200      0.298200      0.243900     Biso  1.000000 C
   C9         1.0     0.065800      0.701800      0.756100     Biso  1.000000 C
   C9         1.0     0.565800      0.701800      0.743900     Biso  1.000000 C
   C9         1.0     0.434200      0.298200      0.256100     Biso  1.000000 C
   C10        1.0     0.504700      0.292700      0.470400     Biso  1.000000 C
   C10        1.0     0.495300      0.707300      0.529600     Biso  1.000000 C
   C10        1.0     0.995300      0.707300      0.970400     Biso  1.000000 C
   C10        1.0     0.004700      0.292700      0.029600     Biso  1.000000 C
   C10        1.0     0.457300      0.754700      0.720400     Biso  1.000000 C
   C10        1.0     0.542700      0.245300      0.279600     Biso  1.000000 C
   C10        1.0     0.042700      0.245300      0.220400     Biso  1.000000 C
   C10        1.0     0.957300      0.754700      0.779600     Biso  1.000000 C
   C10        1.0     0.004700      0.792700      0.970400     Biso  1.000000 C
   C10        1.0     0.995300      0.207300      0.029600     Biso  1.000000 C
   C10        1.0     0.495300      0.207300      0.470400     Biso  1.000000 C
   C10        1.0     0.504700      0.792700      0.529600     Biso  1.000000 C
   C10        1.0     0.957300      0.254700      0.220400     Biso  1.000000 C
   C10        1.0     0.042700      0.745300      0.779600     Biso  1.000000 C
   C10        1.0     0.542700      0.745300      0.720400     Biso  1.000000 C
   C10        1.0     0.457300      0.254700      0.279600     Biso  1.000000 C
   C11        1.0     0.465700      0.305700      0.549800     Biso  1.000000 C
   C11        1.0     0.534300      0.694300      0.450200     Biso  1.000000 C
   C11        1.0     0.034300      0.694300      0.049800     Biso  1.000000 C
   C11        1.0     0.965700      0.305700      0.950200     Biso  1.000000 C
   C11        1.0     0.444300      0.715700      0.799800     Biso  1.000000 C
   C11        1.0     0.555700      0.284300      0.200200     Biso  1.000000 C
   C11        1.0     0.055700      0.284300      0.299800     Biso  1.000000 C
   C11        1.0     0.944300      0.715700      0.700200     Biso  1.000000 C
   C11        1.0     0.965700      0.805700      0.049800     Biso  1.000000 C
   C11        1.0     0.034300      0.194300      0.950200     Biso  1.000000 C
   C11        1.0     0.534300      0.194300      0.549800     Biso  1.000000 C
   C11        1.0     0.465700      0.805700      0.450200     Biso  1.000000 C
   C11        1.0     0.944300      0.215700      0.299800     Biso  1.000000 C
   C11        1.0     0.055700      0.784300      0.700200     Biso  1.000000 C
   C11        1.0     0.555700      0.784300      0.799800     Biso  1.000000 C
   C11        1.0     0.444300      0.215700      0.200200     Biso  1.000000 C
   C12        1.0     0.468900      0.342600      0.641200     Biso  1.000000 C
   C12        1.0     0.531100      0.657400      0.358800     Biso  1.000000 C
   C12        1.0     0.031100      0.657400      0.141200     Biso  1.000000 C
   C12        1.0     0.968900      0.342600      0.858800     Biso  1.000000 C
   C12        1.0     0.407400      0.718900      0.891200     Biso  1.000000 C
   C12        1.0     0.592600      0.281100      0.108800     Biso  1.000000 C
   C12        1.0     0.092600      0.281100      0.391200     Biso  1.000000 C
   C12        1.0     0.907400      0.718900      0.608800     Biso  1.000000 C
   C12        1.0     0.968900      0.842600      0.141200     Biso  1.000000 C
   C12        1.0     0.031100      0.157400      0.858800     Biso  1.000000 C
   C12        1.0     0.531100      0.157400      0.641200     Biso  1.000000 C
   C12        1.0     0.468900      0.842600      0.358800     Biso  1.000000 C
   C12        1.0     0.907400      0.218900      0.391200     Biso  1.000000 C
   C12        1.0     0.092600      0.781100      0.608800     Biso  1.000000 C
   C12        1.0     0.592600      0.781100      0.891200     Biso  1.000000 C
   C12        1.0     0.407400      0.218900      0.108800     Biso  1.000000 C
   H13        1.0     0.431800      0.447100      0.045900     Biso  1.000000 H
   H13        1.0     0.568200      0.552900      0.954100     Biso  1.000000 H
   H13        1.0     0.068200      0.552900      0.545900     Biso  1.000000 H
   H13        1.0     0.931800      0.447100      0.454100     Biso  1.000000 H
   H13        1.0     0.302900      0.681800      0.295900     Biso  1.000000 H
   H13        1.0     0.697100      0.318200      0.704100     Biso  1.000000 H
   H13        1.0     0.197100      0.318200      0.795900     Biso  1.000000 H
   H13        1.0     0.802900      0.681800      0.204100     Biso  1.000000 H
   H13        1.0     0.931800      0.947100      0.545900     Biso  1.000000 H
   H13        1.0     0.068200      0.052900      0.454100     Biso  1.000000 H
   H13        1.0     0.568200      0.052900      0.045900     Biso  1.000000 H
   H13        1.0     0.431800      0.947100      0.954100     Biso  1.000000 H
   H13        1.0     0.802900      0.181800      0.795900     Biso  1.000000 H
   H13        1.0     0.197100      0.818200      0.204100     Biso  1.000000 H
   H13        1.0     0.697100      0.818200      0.295900     Biso  1.000000 H
   H13        1.0     0.302900      0.181800      0.704100     Biso  1.000000 H
   H14        1.0     0.456300      0.395700      0.868900     Biso  1.000000 H
   H14        1.0     0.543700      0.604300      0.131100     Biso  1.000000 H
   H14        1.0     0.043700      0.604300      0.368900     Biso  1.000000 H
   H14        1.0     0.956300      0.395700      0.631100     Biso  1.000000 H
   H14        1.0     0.354300      0.706300      0.118900     Biso  1.000000 H
   H14        1.0     0.645700      0.293700      0.881100     Biso  1.000000 H
   H14        1.0     0.145700      0.293700      0.618900     Biso  1.000000 H
   H14        1.0     0.854300      0.706300      0.381100     Biso  1.000000 H
   H14        1.0     0.956300      0.895700      0.368900     Biso  1.000000 H
   H14        1.0     0.043700      0.104300      0.631100     Biso  1.000000 H
   H14        1.0     0.543700      0.104300      0.868900     Biso  1.000000 H
   H14        1.0     0.456300      0.895700      0.131100     Biso  1.000000 H
   H14        1.0     0.854300      0.206300      0.618900     Biso  1.000000 H
   H14        1.0     0.145700      0.793700      0.381100     Biso  1.000000 H
   H14        1.0     0.645700      0.793700      0.118900     Biso  1.000000 H
   H14        1.0     0.354300      0.206300      0.881100     Biso  1.000000 H
   H15        1.0     0.557400      0.481900      0.820800     Biso  1.000000 H
   H15        1.0     0.442600      0.518100      0.179200     Biso  1.000000 H
   H15        1.0     0.942600      0.518100      0.320800     Biso  1.000000 H
   H15        1.0     0.057400      0.481900      0.679200     Biso  1.000000 H
   H15        1.0     0.268100      0.807400      0.070800     Biso  1.000000 H
   H15        1.0     0.731900      0.192600      0.929200     Biso  1.000000 H
   H15        1.0     0.231900      0.192600      0.570800     Biso  1.000000 H
   H15        1.0     0.768100      0.807400      0.429200     Biso  1.000000 H
   H15        1.0     0.057400      0.981900      0.320800     Biso  1.000000 H
   H15        1.0     0.942600      0.018100      0.679200     Biso  1.000000 H
   H15        1.0     0.442600      0.018100      0.820800     Biso  1.000000 H
   H15        1.0     0.557400      0.981900      0.179200     Biso  1.000000 H
   H15        1.0     0.768100      0.307400      0.570800     Biso  1.000000 H
   H15        1.0     0.231900      0.692600      0.429200     Biso  1.000000 H
   H15        1.0     0.731900      0.692600      0.070800     Biso  1.000000 H
   H15        1.0     0.268100      0.307400      0.929200     Biso  1.000000 H
   H16        1.0     0.584900      0.370600      0.599600     Biso  1.000000 H
   H16        1.0     0.415100      0.629400      0.400400     Biso  1.000000 H
   H16        1.0     0.915100      0.629400      0.099600     Biso  1.000000 H
   H16        1.0     0.084900      0.370600      0.900400     Biso  1.000000 H
   H16        1.0     0.379400      0.834900      0.849600     Biso  1.000000 H
   H16        1.0     0.620600      0.165100      0.150400     Biso  1.000000 H
   H16        1.0     0.120600      0.165100      0.349600     Biso  1.000000 H
   H16        1.0     0.879400      0.834900      0.650400     Biso  1.000000 H
   H16        1.0     0.084900      0.870600      0.099600     Biso  1.000000 H
   H16        1.0     0.915100      0.129400      0.900400     Biso  1.000000 H
   H16        1.0     0.415100      0.129400      0.599600     Biso  1.000000 H
   H16        1.0     0.584900      0.870600      0.400400     Biso  1.000000 H
   H16        1.0     0.879400      0.334900      0.349600     Biso  1.000000 H
   H16        1.0     0.120600      0.665100      0.650400     Biso  1.000000 H
   H16        1.0     0.620600      0.665100      0.849600     Biso  1.000000 H
   H16        1.0     0.379400      0.334900      0.150400     Biso  1.000000 H
   H17        1.0     0.580300      0.305200      0.444400     Biso  1.000000 H
   H17        1.0     0.419700      0.694800      0.555600     Biso  1.000000 H
   H17        1.0     0.919700      0.694800      0.944400     Biso  1.000000 H
   H17        1.0     0.080300      0.305200      0.055600     Biso  1.000000 H
   H17        1.0     0.444800      0.830300      0.694400     Biso  1.000000 H
   H17        1.0     0.555200      0.169700      0.305600     Biso  1.000000 H
   H17        1.0     0.055200      0.169700      0.194400     Biso  1.000000 H
   H17        1.0     0.944800      0.830300      0.805600     Biso  1.000000 H
   H17        1.0     0.080300      0.805200      0.944400     Biso  1.000000 H
   H17        1.0     0.919700      0.194800      0.055600     Biso  1.000000 H
   H17        1.0     0.419700      0.194800      0.444400     Biso  1.000000 H
   H17        1.0     0.580300      0.805200      0.555600     Biso  1.000000 H
   H17        1.0     0.944800      0.330300      0.194400     Biso  1.000000 H
   H17        1.0     0.055200      0.669700      0.805600     Biso  1.000000 H
   H17        1.0     0.555200      0.669700      0.694400     Biso  1.000000 H
   H17        1.0     0.444800      0.330300      0.305600     Biso  1.000000 H
   H18        1.0     0.432200      0.287400      0.539600     Biso  1.000000 H
   H18        1.0     0.567800      0.712600      0.460400     Biso  1.000000 H
   H18        1.0     0.067800      0.712600      0.039600     Biso  1.000000 H
   H18        1.0     0.932200      0.287400      0.960400     Biso  1.000000 H
   H18        1.0     0.462600      0.682200      0.789600     Biso  1.000000 H
   H18        1.0     0.537400      0.317800      0.210400     Biso  1.000000 H
   H18        1.0     0.037400      0.317800      0.289600     Biso  1.000000 H
   H18        1.0     0.962600      0.682200      0.710400     Biso  1.000000 H
   H18        1.0     0.932200      0.787400      0.039600     Biso  1.000000 H
   H18        1.0     0.067800      0.212600      0.960400     Biso  1.000000 H
   H18        1.0     0.567800      0.212600      0.539600     Biso  1.000000 H
   H18        1.0     0.432200      0.787400      0.460400     Biso  1.000000 H
   H18        1.0     0.962600      0.182200      0.289600     Biso  1.000000 H
   H18        1.0     0.037400      0.817800      0.710400     Biso  1.000000 H
   H18        1.0     0.537400      0.817800      0.789600     Biso  1.000000 H
   H18        1.0     0.462600      0.182200      0.210400     Biso  1.000000 H
   H19        1.0     0.437400      0.352700      0.695700     Biso  1.000000 H
   H19        1.0     0.562600      0.647300      0.304300     Biso  1.000000 H
   H19        1.0     0.062600      0.647300      0.195700     Biso  1.000000 H
   H19        1.0     0.937400      0.352700      0.804300     Biso  1.000000 H
   H19        1.0     0.397300      0.687400      0.945700     Biso  1.000000 H
   H19        1.0     0.602700      0.312600      0.054300     Biso  1.000000 H
   H19        1.0     0.102700      0.312600      0.445700     Biso  1.000000 H
   H19        1.0     0.897300      0.687400      0.554300     Biso  1.000000 H
   H19        1.0     0.937400      0.852700      0.195700     Biso  1.000000 H
   H19        1.0     0.062600      0.147300      0.804300     Biso  1.000000 H
   H19        1.0     0.562600      0.147300      0.695700     Biso  1.000000 H
   H19        1.0     0.437400      0.852700      0.304300     Biso  1.000000 H
   H19        1.0     0.897300      0.187400      0.445700     Biso  1.000000 H
   H19        1.0     0.102700      0.812600      0.554300     Biso  1.000000 H
   H19        1.0     0.602700      0.812600      0.945700     Biso  1.000000 H
   H19        1.0     0.397300      0.187400      0.054300     Biso  1.000000 H
