
#======================================================================
# CRYSTAL DATA
#----------------------------------------------------------------------
data_VESTA_phase_1

_chemical_name_common                  'COF-1'
_cell_length_a                         15.652900
_cell_length_b                         15.652900
_cell_length_c                         6.700500
_cell_angle_alpha                      90.000000
_cell_angle_beta                       90.000000
_cell_angle_gamma                      120.000000
_cell_volume                           1421.763796
_space_group_name_H-M_alt              'P 1'
_space_group_IT_number                 1

loop_
_space_group_symop_operation_xyz
   'x, y, z'

loop_
   _atom_site_label
   _atom_site_occupancy
   _atom_site_fract_x
   _atom_site_fract_y
   _atom_site_fract_z
   _atom_site_adp_type
   _atom_site_U_iso_or_equiv
   _atom_site_type_symbol
   B1         1.0     0.057720     0.115430     0.250000    Uiso  ? B
   B1         1.0     0.942280     0.884570     0.750000    Uiso  ? B
   B1         1.0     0.884570     0.942290     0.250000    Uiso  ? B
   B1         1.0     0.115430     0.057710     0.750000    Uiso  ? B
   B1         1.0     0.057710     0.942280     0.250000    Uiso  ? B
   B1         1.0     0.942290     0.057720     0.750000    Uiso  ? B
   B2         1.0     0.444660     0.722330     0.250000    Uiso  ? B
   B2         1.0     0.555340     0.277670     0.750000    Uiso  ? B
   B2         1.0     0.277670     0.722330     0.250000    Uiso  ? B
   B2         1.0     0.722330     0.277670     0.750000    Uiso  ? B
   B2         1.0     0.277670     0.555340     0.250000    Uiso  ? B
   B2         1.0     0.722330     0.444660     0.750000    Uiso  ? B
   O1         1.0     0.111330     0.055670     0.250000    Uiso  ? O
   O1         1.0     0.888670     0.944330     0.750000    Uiso  ? O
   O1         1.0     0.944330     0.055660     0.250000    Uiso  ? O
   O1         1.0     0.055670     0.944340     0.750000    Uiso  ? O
   O1         1.0     0.944340     0.888670     0.250000    Uiso  ? O
   O1         1.0     0.055660     0.111330     0.750000    Uiso  ? O
   O2         1.0     0.389000     0.778000     0.250000    Uiso  ? O
   O2         1.0     0.611000     0.222000     0.750000    Uiso  ? O
   O2         1.0     0.222000     0.611000     0.250000    Uiso  ? O
   O2         1.0     0.778000     0.389000     0.750000    Uiso  ? O
   O2         1.0     0.389000     0.611000     0.250000    Uiso  ? O
   O2         1.0     0.611000     0.389000     0.750000    Uiso  ? O
   C1         1.0     0.111840     0.383610     0.250000    Uiso  ? C
   C1         1.0     0.888160     0.616390     0.750000    Uiso  ? C
   C1         1.0     0.616390     0.728230     0.250000    Uiso  ? C
   C1         1.0     0.383610     0.271770     0.750000    Uiso  ? C
   C1         1.0     0.271770     0.888160     0.250000    Uiso  ? C
   C1         1.0     0.728230     0.111840     0.750000    Uiso  ? C
   C1         1.0     0.383610     0.111840     0.750000    Uiso  ? C
   C1         1.0     0.616390     0.888160     0.250000    Uiso  ? C
   C1         1.0     0.728230     0.616390     0.750000    Uiso  ? C
   C1         1.0     0.271770     0.383610     0.250000    Uiso  ? C
   C1         1.0     0.888160     0.271770     0.750000    Uiso  ? C
   C1         1.0     0.111840     0.728230     0.250000    Uiso  ? C
   C2         1.0     0.218640     0.437280     0.250000    Uiso  ? C
   C2         1.0     0.781360     0.562720     0.750000    Uiso  ? C
   C2         1.0     0.562720     0.781360     0.250000    Uiso  ? C
   C2         1.0     0.437280     0.218640     0.750000    Uiso  ? C
   C2         1.0     0.218640     0.781360     0.250000    Uiso  ? C
   C2         1.0     0.781360     0.218640     0.750000    Uiso  ? C
   C3         1.0     0.218370     0.276850     0.250000    Uiso  ? C
   C3         1.0     0.781630     0.723150     0.750000    Uiso  ? C
   C3         1.0     0.723150     0.941520     0.250000    Uiso  ? C
   C3         1.0     0.276850     0.058480     0.750000    Uiso  ? C
   C3         1.0     0.058480     0.781630     0.250000    Uiso  ? C
   C3         1.0     0.941520     0.218370     0.750000    Uiso  ? C
   C3         1.0     0.276850     0.218370     0.750000    Uiso  ? C
   C3         1.0     0.723150     0.781630     0.250000    Uiso  ? C
   C3         1.0     0.941520     0.723150     0.750000    Uiso  ? C
   C3         1.0     0.058480     0.276850     0.250000    Uiso  ? C
   C3         1.0     0.781630     0.058480     0.750000    Uiso  ? C
   C3         1.0     0.218370     0.941520     0.250000    Uiso  ? C
   C4         1.0     0.110300     0.889700     0.250000    Uiso  ? C
   C4         1.0     0.889700     0.110300     0.750000    Uiso  ? C
   C4         1.0     0.110300     0.220600     0.250000    Uiso  ? C
   C4         1.0     0.889700     0.779400     0.750000    Uiso  ? C
   C4         1.0     0.779400     0.889700     0.250000    Uiso  ? C
   C4         1.0     0.220600     0.110300     0.750000    Uiso  ? C
   H1         1.0     0.577030     0.927730     0.250000    Uiso  ? H
   H1         1.0     0.422970     0.072270     0.750000    Uiso  ? H
   H1         1.0     0.072270     0.649300     0.250000    Uiso  ? H
   H1         1.0     0.927730     0.350700     0.750000    Uiso  ? H
   H1         1.0     0.350700     0.422970     0.250000    Uiso  ? H
   H1         1.0     0.649300     0.577030     0.750000    Uiso  ? H
   H1         1.0     0.927730     0.577030     0.750000    Uiso  ? H
   H1         1.0     0.072270     0.422970     0.250000    Uiso  ? H
   H1         1.0     0.649300     0.072270     0.750000    Uiso  ? H
   H1         1.0     0.350700     0.927730     0.250000    Uiso  ? H
   H1         1.0     0.422970     0.350700     0.750000    Uiso  ? H
   H1         1.0     0.577030     0.649300     0.250000    Uiso  ? H
   H2         1.0     0.020450     0.761810     0.750000    Uiso  ? H
   H2         1.0     0.979550     0.238190     0.250000    Uiso  ? H
   H2         1.0     0.238190     0.258640     0.750000    Uiso  ? H
   H2         1.0     0.761810     0.741360     0.250000    Uiso  ? H
   H2         1.0     0.741360     0.979550     0.750000    Uiso  ? H
   H2         1.0     0.258640     0.020450     0.250000    Uiso  ? H
   H2         1.0     0.761810     0.020450     0.250000    Uiso  ? H
   H2         1.0     0.238190     0.979550     0.750000    Uiso  ? H
   H2         1.0     0.258640     0.238190     0.250000    Uiso  ? H
   H2         1.0     0.741360     0.761810     0.750000    Uiso  ? H
   H2         1.0     0.979550     0.741360     0.250000    Uiso  ? H
   H2         1.0     0.020450     0.258640     0.750000    Uiso  ? H
