
#======================================================================
# CRYSTAL DATA
#----------------------------------------------------------------------
data_VESTA_phase_1

_chemical_name_common                  'IRMOF-1'
_cell_length_a                         25.832001
_cell_length_b                         25.832001
_cell_length_c                         25.832001
_cell_angle_alpha                      90.000000
_cell_angle_beta                       90.000000
_cell_angle_gamma                      90.000000
_cell_volume                           17237.494197
_space_group_name_H-M_alt              'P 1'
_space_group_IT_number                 1

loop_
_space_group_symop_operation_xyz
   'x, y, z'

loop_
   _atom_site_label
   _atom_site_occupancy
   _atom_site_fract_x
   _atom_site_fract_y
   _atom_site_fract_z
   _atom_site_adp_type
   _atom_site_U_iso_or_equiv
   _atom_site_type_symbol
   Zn1        1.0     0.293400     0.206600     0.206600    Uiso  ? Zn
   Zn1        1.0     0.706600     0.793400     0.793400    Uiso  ? Zn
   Zn1        1.0     0.706600     0.793400     0.206600    Uiso  ? Zn
   Zn1        1.0     0.293400     0.206600     0.793400    Uiso  ? Zn
   Zn1        1.0     0.706600     0.206600     0.793400    Uiso  ? Zn
   Zn1        1.0     0.293400     0.793400     0.206600    Uiso  ? Zn
   Zn1        1.0     0.293400     0.793400     0.793400    Uiso  ? Zn
   Zn1        1.0     0.706600     0.206600     0.206600    Uiso  ? Zn
   Zn1        1.0     0.206600     0.293400     0.206600    Uiso  ? Zn
   Zn1        1.0     0.793400     0.706600     0.793400    Uiso  ? Zn
   Zn1        1.0     0.206600     0.706600     0.793400    Uiso  ? Zn
   Zn1        1.0     0.793400     0.293400     0.206600    Uiso  ? Zn
   Zn1        1.0     0.793400     0.706600     0.206600    Uiso  ? Zn
   Zn1        1.0     0.206600     0.293400     0.793400    Uiso  ? Zn
   Zn1        1.0     0.793400     0.293400     0.793400    Uiso  ? Zn
   Zn1        1.0     0.206600     0.706600     0.206600    Uiso  ? Zn
   Zn1        1.0     0.206600     0.206600     0.293400    Uiso  ? Zn
   Zn1        1.0     0.793400     0.793400     0.706600    Uiso  ? Zn
   Zn1        1.0     0.793400     0.206600     0.706600    Uiso  ? Zn
   Zn1        1.0     0.206600     0.793400     0.293400    Uiso  ? Zn
   Zn1        1.0     0.206600     0.793400     0.706600    Uiso  ? Zn
   Zn1        1.0     0.793400     0.206600     0.293400    Uiso  ? Zn
   Zn1        1.0     0.793400     0.793400     0.293400    Uiso  ? Zn
   Zn1        1.0     0.206600     0.206600     0.706600    Uiso  ? Zn
   Zn1        1.0     0.293400     0.706600     0.706600    Uiso  ? Zn
   Zn1        1.0     0.706600     0.293400     0.293400    Uiso  ? Zn
   Zn1        1.0     0.706600     0.293400     0.706600    Uiso  ? Zn
   Zn1        1.0     0.293400     0.706600     0.293400    Uiso  ? Zn
   Zn1        1.0     0.706600     0.706600     0.293400    Uiso  ? Zn
   Zn1        1.0     0.293400     0.293400     0.706600    Uiso  ? Zn
   Zn1        1.0     0.293400     0.293400     0.293400    Uiso  ? Zn
   Zn1        1.0     0.706600     0.706600     0.706600    Uiso  ? Zn
   O1         1.0     0.250000     0.250000     0.250000    Uiso  ? O
   O1         1.0     0.750000     0.750000     0.750000    Uiso  ? O
   O1         1.0     0.750000     0.750000     0.250000    Uiso  ? O
   O1         1.0     0.250000     0.250000     0.750000    Uiso  ? O
   O1         1.0     0.750000     0.250000     0.750000    Uiso  ? O
   O1         1.0     0.250000     0.750000     0.250000    Uiso  ? O
   O1         1.0     0.250000     0.750000     0.750000    Uiso  ? O
   O1         1.0     0.750000     0.250000     0.250000    Uiso  ? O
   O2         1.0     0.281900     0.218100     0.134000    Uiso  ? O
   O2         1.0     0.718100     0.781900     0.866000    Uiso  ? O
   O2         1.0     0.718100     0.781900     0.134000    Uiso  ? O
   O2         1.0     0.281900     0.218100     0.866000    Uiso  ? O
   O2         1.0     0.718100     0.218100     0.866000    Uiso  ? O
   O2         1.0     0.281900     0.781900     0.134000    Uiso  ? O
   O2         1.0     0.281900     0.781900     0.866000    Uiso  ? O
   O2         1.0     0.718100     0.218100     0.134000    Uiso  ? O
   O2         1.0     0.134000     0.281900     0.218100    Uiso  ? O
   O2         1.0     0.866000     0.718100     0.781900    Uiso  ? O
   O2         1.0     0.134000     0.718100     0.781900    Uiso  ? O
   O2         1.0     0.866000     0.281900     0.218100    Uiso  ? O
   O2         1.0     0.866000     0.718100     0.218100    Uiso  ? O
   O2         1.0     0.134000     0.281900     0.781900    Uiso  ? O
   O2         1.0     0.866000     0.281900     0.781900    Uiso  ? O
   O2         1.0     0.134000     0.718100     0.218100    Uiso  ? O
   O2         1.0     0.218100     0.134000     0.281900    Uiso  ? O
   O2         1.0     0.781900     0.866000     0.718100    Uiso  ? O
   O2         1.0     0.781900     0.134000     0.718100    Uiso  ? O
   O2         1.0     0.218100     0.866000     0.281900    Uiso  ? O
   O2         1.0     0.218100     0.866000     0.718100    Uiso  ? O
   O2         1.0     0.781900     0.134000     0.281900    Uiso  ? O
   O2         1.0     0.781900     0.866000     0.281900    Uiso  ? O
   O2         1.0     0.218100     0.134000     0.718100    Uiso  ? O
   O2         1.0     0.218100     0.281900     0.866000    Uiso  ? O
   O2         1.0     0.781900     0.718100     0.134000    Uiso  ? O
   O2         1.0     0.781900     0.718100     0.866000    Uiso  ? O
   O2         1.0     0.218100     0.281900     0.134000    Uiso  ? O
   O2         1.0     0.218100     0.718100     0.134000    Uiso  ? O
   O2         1.0     0.781900     0.281900     0.866000    Uiso  ? O
   O2         1.0     0.781900     0.281900     0.134000    Uiso  ? O
   O2         1.0     0.218100     0.718100     0.866000    Uiso  ? O
   O2         1.0     0.281900     0.134000     0.781900    Uiso  ? O
   O2         1.0     0.718100     0.866000     0.218100    Uiso  ? O
   O2         1.0     0.718100     0.134000     0.218100    Uiso  ? O
   O2         1.0     0.281900     0.866000     0.781900    Uiso  ? O
   O2         1.0     0.718100     0.866000     0.781900    Uiso  ? O
   O2         1.0     0.281900     0.134000     0.218100    Uiso  ? O
   O2         1.0     0.281900     0.866000     0.218100    Uiso  ? O
   O2         1.0     0.718100     0.134000     0.781900    Uiso  ? O
   O2         1.0     0.134000     0.218100     0.718100    Uiso  ? O
   O2         1.0     0.866000     0.781900     0.281900    Uiso  ? O
   O2         1.0     0.134000     0.781900     0.281900    Uiso  ? O
   O2         1.0     0.866000     0.218100     0.718100    Uiso  ? O
   O2         1.0     0.866000     0.218100     0.281900    Uiso  ? O
   O2         1.0     0.134000     0.781900     0.718100    Uiso  ? O
   O2         1.0     0.866000     0.781900     0.718100    Uiso  ? O
   O2         1.0     0.134000     0.218100     0.281900    Uiso  ? O
   O2         1.0     0.281900     0.718100     0.634000    Uiso  ? O
   O2         1.0     0.718100     0.281900     0.366000    Uiso  ? O
   O2         1.0     0.718100     0.281900     0.634000    Uiso  ? O
   O2         1.0     0.281900     0.718100     0.366000    Uiso  ? O
   O2         1.0     0.718100     0.718100     0.366000    Uiso  ? O
   O2         1.0     0.281900     0.281900     0.634000    Uiso  ? O
   O2         1.0     0.281900     0.281900     0.366000    Uiso  ? O
   O2         1.0     0.718100     0.718100     0.634000    Uiso  ? O
   O2         1.0     0.218100     0.634000     0.781900    Uiso  ? O
   O2         1.0     0.781900     0.366000     0.218100    Uiso  ? O
   O2         1.0     0.781900     0.634000     0.218100    Uiso  ? O
   O2         1.0     0.218100     0.366000     0.781900    Uiso  ? O
   O2         1.0     0.218100     0.366000     0.218100    Uiso  ? O
   O2         1.0     0.781900     0.634000     0.781900    Uiso  ? O
   O2         1.0     0.781900     0.366000     0.781900    Uiso  ? O
   O2         1.0     0.218100     0.634000     0.218100    Uiso  ? O
   O2         1.0     0.218100     0.781900     0.366000    Uiso  ? O
   O2         1.0     0.781900     0.218100     0.634000    Uiso  ? O
   O2         1.0     0.781900     0.218100     0.366000    Uiso  ? O
   O2         1.0     0.218100     0.781900     0.634000    Uiso  ? O
   O2         1.0     0.218100     0.218100     0.634000    Uiso  ? O
   O2         1.0     0.781900     0.781900     0.366000    Uiso  ? O
   O2         1.0     0.781900     0.781900     0.634000    Uiso  ? O
   O2         1.0     0.218100     0.218100     0.366000    Uiso  ? O
   O2         1.0     0.281900     0.634000     0.281900    Uiso  ? O
   O2         1.0     0.718100     0.366000     0.718100    Uiso  ? O
   O2         1.0     0.718100     0.634000     0.718100    Uiso  ? O
   O2         1.0     0.281900     0.366000     0.281900    Uiso  ? O
   O2         1.0     0.718100     0.366000     0.281900    Uiso  ? O
   O2         1.0     0.281900     0.634000     0.718100    Uiso  ? O
   O2         1.0     0.281900     0.366000     0.718100    Uiso  ? O
   O2         1.0     0.718100     0.634000     0.281900    Uiso  ? O
   O2         1.0     0.634000     0.281900     0.718100    Uiso  ? O
   O2         1.0     0.366000     0.718100     0.281900    Uiso  ? O
   O2         1.0     0.634000     0.718100     0.281900    Uiso  ? O
   O2         1.0     0.366000     0.281900     0.718100    Uiso  ? O
   O2         1.0     0.366000     0.718100     0.718100    Uiso  ? O
   O2         1.0     0.634000     0.281900     0.281900    Uiso  ? O
   O2         1.0     0.366000     0.281900     0.281900    Uiso  ? O
   O2         1.0     0.634000     0.718100     0.718100    Uiso  ? O
   O2         1.0     0.634000     0.218100     0.218100    Uiso  ? O
   O2         1.0     0.366000     0.781900     0.781900    Uiso  ? O
   O2         1.0     0.634000     0.781900     0.781900    Uiso  ? O
   O2         1.0     0.366000     0.218100     0.218100    Uiso  ? O
   O2         1.0     0.366000     0.218100     0.781900    Uiso  ? O
   O2         1.0     0.634000     0.781900     0.218100    Uiso  ? O
   O2         1.0     0.366000     0.781900     0.218100    Uiso  ? O
   O2         1.0     0.634000     0.218100     0.781900    Uiso  ? O
   C1         1.0     0.250000     0.250000     0.111300    Uiso  ? C
   C1         1.0     0.750000     0.750000     0.888700    Uiso  ? C
   C1         1.0     0.750000     0.750000     0.111300    Uiso  ? C
   C1         1.0     0.250000     0.250000     0.888700    Uiso  ? C
   C1         1.0     0.750000     0.250000     0.888700    Uiso  ? C
   C1         1.0     0.250000     0.750000     0.111300    Uiso  ? C
   C1         1.0     0.250000     0.750000     0.888700    Uiso  ? C
   C1         1.0     0.750000     0.250000     0.111300    Uiso  ? C
   C1         1.0     0.111300     0.250000     0.250000    Uiso  ? C
   C1         1.0     0.888700     0.750000     0.750000    Uiso  ? C
   C1         1.0     0.111300     0.750000     0.750000    Uiso  ? C
   C1         1.0     0.888700     0.250000     0.250000    Uiso  ? C
   C1         1.0     0.888700     0.750000     0.250000    Uiso  ? C
   C1         1.0     0.111300     0.250000     0.750000    Uiso  ? C
   C1         1.0     0.888700     0.250000     0.750000    Uiso  ? C
   C1         1.0     0.111300     0.750000     0.250000    Uiso  ? C
   C1         1.0     0.250000     0.111300     0.250000    Uiso  ? C
   C1         1.0     0.750000     0.888700     0.750000    Uiso  ? C
   C1         1.0     0.750000     0.111300     0.750000    Uiso  ? C
   C1         1.0     0.250000     0.888700     0.250000    Uiso  ? C
   C1         1.0     0.250000     0.888700     0.750000    Uiso  ? C
   C1         1.0     0.750000     0.111300     0.250000    Uiso  ? C
   C1         1.0     0.750000     0.888700     0.250000    Uiso  ? C
   C1         1.0     0.250000     0.111300     0.750000    Uiso  ? C
   C1         1.0     0.250000     0.750000     0.611300    Uiso  ? C
   C1         1.0     0.750000     0.250000     0.388700    Uiso  ? C
   C1         1.0     0.750000     0.250000     0.611300    Uiso  ? C
   C1         1.0     0.250000     0.750000     0.388700    Uiso  ? C
   C1         1.0     0.750000     0.750000     0.388700    Uiso  ? C
   C1         1.0     0.250000     0.250000     0.611300    Uiso  ? C
   C1         1.0     0.250000     0.250000     0.388700    Uiso  ? C
   C1         1.0     0.750000     0.750000     0.611300    Uiso  ? C
   C1         1.0     0.250000     0.611300     0.750000    Uiso  ? C
   C1         1.0     0.750000     0.388700     0.250000    Uiso  ? C
   C1         1.0     0.750000     0.611300     0.250000    Uiso  ? C
   C1         1.0     0.250000     0.388700     0.750000    Uiso  ? C
   C1         1.0     0.250000     0.388700     0.250000    Uiso  ? C
   C1         1.0     0.750000     0.611300     0.750000    Uiso  ? C
   C1         1.0     0.750000     0.388700     0.750000    Uiso  ? C
   C1         1.0     0.250000     0.611300     0.250000    Uiso  ? C
   C1         1.0     0.611300     0.250000     0.750000    Uiso  ? C
   C1         1.0     0.388700     0.750000     0.250000    Uiso  ? C
   C1         1.0     0.611300     0.750000     0.250000    Uiso  ? C
   C1         1.0     0.388700     0.250000     0.750000    Uiso  ? C
   C1         1.0     0.388700     0.750000     0.750000    Uiso  ? C
   C1         1.0     0.611300     0.250000     0.250000    Uiso  ? C
   C1         1.0     0.388700     0.250000     0.250000    Uiso  ? C
   C1         1.0     0.611300     0.750000     0.750000    Uiso  ? C
   C2         1.0     0.250000     0.250000     0.053800    Uiso  ? C
   C2         1.0     0.750000     0.750000     0.946200    Uiso  ? C
   C2         1.0     0.750000     0.750000     0.053800    Uiso  ? C
   C2         1.0     0.250000     0.250000     0.946200    Uiso  ? C
   C2         1.0     0.750000     0.250000     0.946200    Uiso  ? C
   C2         1.0     0.250000     0.750000     0.053800    Uiso  ? C
   C2         1.0     0.250000     0.750000     0.946200    Uiso  ? C
   C2         1.0     0.750000     0.250000     0.053800    Uiso  ? C
   C2         1.0     0.053800     0.250000     0.250000    Uiso  ? C
   C2         1.0     0.946200     0.750000     0.750000    Uiso  ? C
   C2         1.0     0.053800     0.750000     0.750000    Uiso  ? C
   C2         1.0     0.946200     0.250000     0.250000    Uiso  ? C
   C2         1.0     0.946200     0.750000     0.250000    Uiso  ? C
   C2         1.0     0.053800     0.250000     0.750000    Uiso  ? C
   C2         1.0     0.946200     0.250000     0.750000    Uiso  ? C
   C2         1.0     0.053800     0.750000     0.250000    Uiso  ? C
   C2         1.0     0.250000     0.053800     0.250000    Uiso  ? C
   C2         1.0     0.750000     0.946200     0.750000    Uiso  ? C
   C2         1.0     0.750000     0.053800     0.750000    Uiso  ? C
   C2         1.0     0.250000     0.946200     0.250000    Uiso  ? C
   C2         1.0     0.250000     0.946200     0.750000    Uiso  ? C
   C2         1.0     0.750000     0.053800     0.250000    Uiso  ? C
   C2         1.0     0.750000     0.946200     0.250000    Uiso  ? C
   C2         1.0     0.250000     0.053800     0.750000    Uiso  ? C
   C2         1.0     0.250000     0.750000     0.553800    Uiso  ? C
   C2         1.0     0.750000     0.250000     0.446200    Uiso  ? C
   C2         1.0     0.750000     0.250000     0.553800    Uiso  ? C
   C2         1.0     0.250000     0.750000     0.446200    Uiso  ? C
   C2         1.0     0.750000     0.750000     0.446200    Uiso  ? C
   C2         1.0     0.250000     0.250000     0.553800    Uiso  ? C
   C2         1.0     0.250000     0.250000     0.446200    Uiso  ? C
   C2         1.0     0.750000     0.750000     0.553800    Uiso  ? C
   C2         1.0     0.250000     0.553800     0.750000    Uiso  ? C
   C2         1.0     0.750000     0.446200     0.250000    Uiso  ? C
   C2         1.0     0.750000     0.553800     0.250000    Uiso  ? C
   C2         1.0     0.250000     0.446200     0.750000    Uiso  ? C
   C2         1.0     0.250000     0.446200     0.250000    Uiso  ? C
   C2         1.0     0.750000     0.553800     0.750000    Uiso  ? C
   C2         1.0     0.750000     0.446200     0.750000    Uiso  ? C
   C2         1.0     0.250000     0.553800     0.250000    Uiso  ? C
   C2         1.0     0.553800     0.250000     0.750000    Uiso  ? C
   C2         1.0     0.446200     0.750000     0.250000    Uiso  ? C
   C2         1.0     0.553800     0.750000     0.250000    Uiso  ? C
   C2         1.0     0.446200     0.250000     0.750000    Uiso  ? C
   C2         1.0     0.446200     0.750000     0.750000    Uiso  ? C
   C2         1.0     0.553800     0.250000     0.250000    Uiso  ? C
   C2         1.0     0.446200     0.250000     0.250000    Uiso  ? C
   C2         1.0     0.553800     0.750000     0.750000    Uiso  ? C
   C3         1.0     0.282900     0.217100     0.026900    Uiso  ? C
   C3         1.0     0.717100     0.782900     0.973100    Uiso  ? C
   C3         1.0     0.717100     0.782900     0.026900    Uiso  ? C
   C3         1.0     0.282900     0.217100     0.973100    Uiso  ? C
   C3         1.0     0.717100     0.217100     0.973100    Uiso  ? C
   C3         1.0     0.282900     0.782900     0.026900    Uiso  ? C
   C3         1.0     0.282900     0.782900     0.973100    Uiso  ? C
   C3         1.0     0.717100     0.217100     0.026900    Uiso  ? C
   C3         1.0     0.026900     0.282900     0.217100    Uiso  ? C
   C3         1.0     0.973100     0.717100     0.782900    Uiso  ? C
   C3         1.0     0.026900     0.717100     0.782900    Uiso  ? C
   C3         1.0     0.973100     0.282900     0.217100    Uiso  ? C
   C3         1.0     0.973100     0.717100     0.217100    Uiso  ? C
   C3         1.0     0.026900     0.282900     0.782900    Uiso  ? C
   C3         1.0     0.973100     0.282900     0.782900    Uiso  ? C
   C3         1.0     0.026900     0.717100     0.217100    Uiso  ? C
   C3         1.0     0.217100     0.026900     0.282900    Uiso  ? C
   C3         1.0     0.782900     0.973100     0.717100    Uiso  ? C
   C3         1.0     0.782900     0.026900     0.717100    Uiso  ? C
   C3         1.0     0.217100     0.973100     0.282900    Uiso  ? C
   C3         1.0     0.217100     0.973100     0.717100    Uiso  ? C
   C3         1.0     0.782900     0.026900     0.282900    Uiso  ? C
   C3         1.0     0.782900     0.973100     0.282900    Uiso  ? C
   C3         1.0     0.217100     0.026900     0.717100    Uiso  ? C
   C3         1.0     0.217100     0.282900     0.973100    Uiso  ? C
   C3         1.0     0.782900     0.717100     0.026900    Uiso  ? C
   C3         1.0     0.782900     0.717100     0.973100    Uiso  ? C
   C3         1.0     0.217100     0.282900     0.026900    Uiso  ? C
   C3         1.0     0.217100     0.717100     0.026900    Uiso  ? C
   C3         1.0     0.782900     0.282900     0.973100    Uiso  ? C
   C3         1.0     0.782900     0.282900     0.026900    Uiso  ? C
   C3         1.0     0.217100     0.717100     0.973100    Uiso  ? C
   C3         1.0     0.282900     0.026900     0.782900    Uiso  ? C
   C3         1.0     0.717100     0.973100     0.217100    Uiso  ? C
   C3         1.0     0.717100     0.026900     0.217100    Uiso  ? C
   C3         1.0     0.282900     0.973100     0.782900    Uiso  ? C
   C3         1.0     0.717100     0.973100     0.782900    Uiso  ? C
   C3         1.0     0.282900     0.026900     0.217100    Uiso  ? C
   C3         1.0     0.282900     0.973100     0.217100    Uiso  ? C
   C3         1.0     0.717100     0.026900     0.782900    Uiso  ? C
   C3         1.0     0.026900     0.217100     0.717100    Uiso  ? C
   C3         1.0     0.973100     0.782900     0.282900    Uiso  ? C
   C3         1.0     0.026900     0.782900     0.282900    Uiso  ? C
   C3         1.0     0.973100     0.217100     0.717100    Uiso  ? C
   C3         1.0     0.973100     0.217100     0.282900    Uiso  ? C
   C3         1.0     0.026900     0.782900     0.717100    Uiso  ? C
   C3         1.0     0.973100     0.782900     0.717100    Uiso  ? C
   C3         1.0     0.026900     0.217100     0.282900    Uiso  ? C
   C3         1.0     0.282900     0.717100     0.526900    Uiso  ? C
   C3         1.0     0.717100     0.282900     0.473100    Uiso  ? C
   C3         1.0     0.717100     0.282900     0.526900    Uiso  ? C
   C3         1.0     0.282900     0.717100     0.473100    Uiso  ? C
   C3         1.0     0.717100     0.717100     0.473100    Uiso  ? C
   C3         1.0     0.282900     0.282900     0.526900    Uiso  ? C
   C3         1.0     0.282900     0.282900     0.473100    Uiso  ? C
   C3         1.0     0.717100     0.717100     0.526900    Uiso  ? C
   C3         1.0     0.217100     0.526900     0.782900    Uiso  ? C
   C3         1.0     0.782900     0.473100     0.217100    Uiso  ? C
   C3         1.0     0.782900     0.526900     0.217100    Uiso  ? C
   C3         1.0     0.217100     0.473100     0.782900    Uiso  ? C
   C3         1.0     0.217100     0.473100     0.217100    Uiso  ? C
   C3         1.0     0.782900     0.526900     0.782900    Uiso  ? C
   C3         1.0     0.782900     0.473100     0.782900    Uiso  ? C
   C3         1.0     0.217100     0.526900     0.217100    Uiso  ? C
   C3         1.0     0.217100     0.782900     0.473100    Uiso  ? C
   C3         1.0     0.782900     0.217100     0.526900    Uiso  ? C
   C3         1.0     0.782900     0.217100     0.473100    Uiso  ? C
   C3         1.0     0.217100     0.782900     0.526900    Uiso  ? C
   C3         1.0     0.217100     0.217100     0.526900    Uiso  ? C
   C3         1.0     0.782900     0.782900     0.473100    Uiso  ? C
   C3         1.0     0.782900     0.782900     0.526900    Uiso  ? C
   C3         1.0     0.217100     0.217100     0.473100    Uiso  ? C
   C3         1.0     0.282900     0.526900     0.282900    Uiso  ? C
   C3         1.0     0.717100     0.473100     0.717100    Uiso  ? C
   C3         1.0     0.717100     0.526900     0.717100    Uiso  ? C
   C3         1.0     0.282900     0.473100     0.282900    Uiso  ? C
   C3         1.0     0.717100     0.473100     0.282900    Uiso  ? C
   C3         1.0     0.282900     0.526900     0.717100    Uiso  ? C
   C3         1.0     0.282900     0.473100     0.717100    Uiso  ? C
   C3         1.0     0.717100     0.526900     0.282900    Uiso  ? C
   C3         1.0     0.526900     0.282900     0.717100    Uiso  ? C
   C3         1.0     0.473100     0.717100     0.282900    Uiso  ? C
   C3         1.0     0.526900     0.717100     0.282900    Uiso  ? C
   C3         1.0     0.473100     0.282900     0.717100    Uiso  ? C
   C3         1.0     0.473100     0.717100     0.717100    Uiso  ? C
   C3         1.0     0.526900     0.282900     0.282900    Uiso  ? C
   C3         1.0     0.473100     0.282900     0.282900    Uiso  ? C
   C3         1.0     0.526900     0.717100     0.717100    Uiso  ? C
   C3         1.0     0.526900     0.217100     0.217100    Uiso  ? C
   C3         1.0     0.473100     0.782900     0.782900    Uiso  ? C
   C3         1.0     0.526900     0.782900     0.782900    Uiso  ? C
   C3         1.0     0.473100     0.217100     0.217100    Uiso  ? C
   C3         1.0     0.473100     0.217100     0.782900    Uiso  ? C
   C3         1.0     0.526900     0.782900     0.217100    Uiso  ? C
   C3         1.0     0.473100     0.782900     0.217100    Uiso  ? C
   C3         1.0     0.526900     0.217100     0.782900    Uiso  ? C
   H1         1.0     0.304900     0.195100     0.044800    Uiso  ? H
   H1         1.0     0.695100     0.804900     0.955200    Uiso  ? H
   H1         1.0     0.695100     0.804900     0.044800    Uiso  ? H
   H1         1.0     0.304900     0.195100     0.955200    Uiso  ? H
   H1         1.0     0.695100     0.195100     0.955200    Uiso  ? H
   H1         1.0     0.304900     0.804900     0.044800    Uiso  ? H
   H1         1.0     0.304900     0.804900     0.955200    Uiso  ? H
   H1         1.0     0.695100     0.195100     0.044800    Uiso  ? H
   H1         1.0     0.044800     0.304900     0.195100    Uiso  ? H
   H1         1.0     0.955200     0.695100     0.804900    Uiso  ? H
   H1         1.0     0.044800     0.695100     0.804900    Uiso  ? H
   H1         1.0     0.955200     0.304900     0.195100    Uiso  ? H
   H1         1.0     0.955200     0.695100     0.195100    Uiso  ? H
   H1         1.0     0.044800     0.304900     0.804900    Uiso  ? H
   H1         1.0     0.955200     0.304900     0.804900    Uiso  ? H
   H1         1.0     0.044800     0.695100     0.195100    Uiso  ? H
   H1         1.0     0.195100     0.044800     0.304900    Uiso  ? H
   H1         1.0     0.804900     0.955200     0.695100    Uiso  ? H
   H1         1.0     0.804900     0.044800     0.695100    Uiso  ? H
   H1         1.0     0.195100     0.955200     0.304900    Uiso  ? H
   H1         1.0     0.195100     0.955200     0.695100    Uiso  ? H
   H1         1.0     0.804900     0.044800     0.304900    Uiso  ? H
   H1         1.0     0.804900     0.955200     0.304900    Uiso  ? H
   H1         1.0     0.195100     0.044800     0.695100    Uiso  ? H
   H1         1.0     0.195100     0.304900     0.955200    Uiso  ? H
   H1         1.0     0.804900     0.695100     0.044800    Uiso  ? H
   H1         1.0     0.804900     0.695100     0.955200    Uiso  ? H
   H1         1.0     0.195100     0.304900     0.044800    Uiso  ? H
   H1         1.0     0.195100     0.695100     0.044800    Uiso  ? H
   H1         1.0     0.804900     0.304900     0.955200    Uiso  ? H
   H1         1.0     0.804900     0.304900     0.044800    Uiso  ? H
   H1         1.0     0.195100     0.695100     0.955200    Uiso  ? H
   H1         1.0     0.304900     0.044800     0.804900    Uiso  ? H
   H1         1.0     0.695100     0.955200     0.195100    Uiso  ? H
   H1         1.0     0.695100     0.044800     0.195100    Uiso  ? H
   H1         1.0     0.304900     0.955200     0.804900    Uiso  ? H
   H1         1.0     0.695100     0.955200     0.804900    Uiso  ? H
   H1         1.0     0.304900     0.044800     0.195100    Uiso  ? H
   H1         1.0     0.304900     0.955200     0.195100    Uiso  ? H
   H1         1.0     0.695100     0.044800     0.804900    Uiso  ? H
   H1         1.0     0.044800     0.195100     0.695100    Uiso  ? H
   H1         1.0     0.955200     0.804900     0.304900    Uiso  ? H
   H1         1.0     0.044800     0.804900     0.304900    Uiso  ? H
   H1         1.0     0.955200     0.195100     0.695100    Uiso  ? H
   H1         1.0     0.955200     0.195100     0.304900    Uiso  ? H
   H1         1.0     0.044800     0.804900     0.695100    Uiso  ? H
   H1         1.0     0.955200     0.804900     0.695100    Uiso  ? H
   H1         1.0     0.044800     0.195100     0.304900    Uiso  ? H
   H1         1.0     0.304900     0.695100     0.544800    Uiso  ? H
   H1         1.0     0.695100     0.304900     0.455200    Uiso  ? H
   H1         1.0     0.695100     0.304900     0.544800    Uiso  ? H
   H1         1.0     0.304900     0.695100     0.455200    Uiso  ? H
   H1         1.0     0.695100     0.695100     0.455200    Uiso  ? H
   H1         1.0     0.304900     0.304900     0.544800    Uiso  ? H
   H1         1.0     0.304900     0.304900     0.455200    Uiso  ? H
   H1         1.0     0.695100     0.695100     0.544800    Uiso  ? H
   H1         1.0     0.195100     0.544800     0.804900    Uiso  ? H
   H1         1.0     0.804900     0.455200     0.195100    Uiso  ? H
   H1         1.0     0.804900     0.544800     0.195100    Uiso  ? H
   H1         1.0     0.195100     0.455200     0.804900    Uiso  ? H
   H1         1.0     0.195100     0.455200     0.195100    Uiso  ? H
   H1         1.0     0.804900     0.544800     0.804900    Uiso  ? H
   H1         1.0     0.804900     0.455200     0.804900    Uiso  ? H
   H1         1.0     0.195100     0.544800     0.195100    Uiso  ? H
   H1         1.0     0.195100     0.804900     0.455200    Uiso  ? H
   H1         1.0     0.804900     0.195100     0.544800    Uiso  ? H
   H1         1.0     0.804900     0.195100     0.455200    Uiso  ? H
   H1         1.0     0.195100     0.804900     0.544800    Uiso  ? H
   H1         1.0     0.195100     0.195100     0.544800    Uiso  ? H
   H1         1.0     0.804900     0.804900     0.455200    Uiso  ? H
   H1         1.0     0.804900     0.804900     0.544800    Uiso  ? H
   H1         1.0     0.195100     0.195100     0.455200    Uiso  ? H
   H1         1.0     0.304900     0.544800     0.304900    Uiso  ? H
   H1         1.0     0.695100     0.455200     0.695100    Uiso  ? H
   H1         1.0     0.695100     0.544800     0.695100    Uiso  ? H
   H1         1.0     0.304900     0.455200     0.304900    Uiso  ? H
   H1         1.0     0.695100     0.455200     0.304900    Uiso  ? H
   H1         1.0     0.304900     0.544800     0.695100    Uiso  ? H
   H1         1.0     0.304900     0.455200     0.695100    Uiso  ? H
   H1         1.0     0.695100     0.544800     0.304900    Uiso  ? H
   H1         1.0     0.544800     0.304900     0.695100    Uiso  ? H
   H1         1.0     0.455200     0.695100     0.304900    Uiso  ? H
   H1         1.0     0.544800     0.695100     0.304900    Uiso  ? H
   H1         1.0     0.455200     0.304900     0.695100    Uiso  ? H
   H1         1.0     0.455200     0.695100     0.695100    Uiso  ? H
   H1         1.0     0.544800     0.304900     0.304900    Uiso  ? H
   H1         1.0     0.455200     0.304900     0.304900    Uiso  ? H
   H1         1.0     0.544800     0.695100     0.695100    Uiso  ? H
   H1         1.0     0.544800     0.195100     0.195100    Uiso  ? H
   H1         1.0     0.455200     0.804900     0.804900    Uiso  ? H
   H1         1.0     0.544800     0.804900     0.804900    Uiso  ? H
   H1         1.0     0.455200     0.195100     0.195100    Uiso  ? H
   H1         1.0     0.455200     0.195100     0.804900    Uiso  ? H
   H1         1.0     0.544800     0.804900     0.195100    Uiso  ? H
   H1         1.0     0.455200     0.804900     0.195100    Uiso  ? H
   H1         1.0     0.544800     0.195100     0.804900    Uiso  ? H
