#======================================================================

# CRYSTAL DATA

#----------------------------------------------------------------------

data_VESTA_phase_1


_chemical_name_common                  ''
_cell_length_a                         6.81790
_cell_length_b                         16.14300
_cell_length_c                         13.93900
_cell_angle_alpha                      90
_cell_angle_beta                       90
_cell_angle_gamma                      90
_space_group_name_H-M_alt              'P 1'
_space_group_IT_number                 1

loop_
_space_group_symop_operation_xyz
   'x, y, z'

loop_
   _atom_site_label
   _atom_site_occupancy
   _atom_site_fract_x
   _atom_site_fract_y
   _atom_site_fract_z
   _atom_site_adp_type
   _atom_site_B_iso_or_equiv
   _atom_site_type_symbol
   V          1.0     0.200200      0.250000      0.739160     Biso  1.000000 V
   V          1.0     0.799800      0.750000      0.260840     Biso  1.000000 V
   V          1.0     0.299800      0.750000      0.239160     Biso  1.000000 V
   V          1.0     0.700200      0.250000      0.760840     Biso  1.000000 V
   O1         1.0     0.975100      0.250000      0.691600     Biso  1.000000 O
   O1         1.0     0.024900      0.750000      0.308400     Biso  1.000000 O
   O1         1.0     0.524900      0.750000      0.191600     Biso  1.000000 O
   O1         1.0     0.475100      0.250000      0.808400     Biso  1.000000 O
   O2         1.0     0.311800      0.163200      0.655500     Biso  1.000000 O
   O2         1.0     0.688200      0.836800      0.344500     Biso  1.000000 O
   O2         1.0     0.188200      0.836800      0.155500     Biso  1.000000 O
   O2         1.0     0.811800      0.163200      0.844500     Biso  1.000000 O
   O2         1.0     0.688200      0.663200      0.344500     Biso  1.000000 O
   O2         1.0     0.311800      0.336800      0.655500     Biso  1.000000 O
   O2         1.0     0.811800      0.336800      0.844500     Biso  1.000000 O
   O2         1.0     0.188200      0.663200      0.155500     Biso  1.000000 O
   O3         1.0     0.141500      0.162600      0.833500     Biso  1.000000 O
   O3         1.0     0.858500      0.837400      0.166500     Biso  1.000000 O
   O3         1.0     0.358500      0.837400      0.333500     Biso  1.000000 O
   O3         1.0     0.641500      0.162600      0.666500     Biso  1.000000 O
   O3         1.0     0.858500      0.662600      0.166500     Biso  1.000000 O
   O3         1.0     0.141500      0.337400      0.833500     Biso  1.000000 O
   O3         1.0     0.641500      0.337400      0.666500     Biso  1.000000 O
   O3         1.0     0.358500      0.662600      0.333500     Biso  1.000000 O
   C1         1.0     0.322500      0.032900      0.526100     Biso  1.000000 C
   C1         1.0     0.677500      0.967100      0.473900     Biso  1.000000 C
   C1         1.0     0.177500      0.967100      0.026100     Biso  1.000000 C
   C1         1.0     0.822500      0.032900      0.973900     Biso  1.000000 C
   C1         1.0     0.677500      0.532900      0.473900     Biso  1.000000 C
   C1         1.0     0.322500      0.467100      0.526100     Biso  1.000000 C
   C1         1.0     0.822500      0.467100      0.973900     Biso  1.000000 C
   C1         1.0     0.177500      0.532900      0.026100     Biso  1.000000 C
   H1         1.0     0.201500      0.055400      0.542500     Biso  1.000000 H
   H1         1.0     0.798500      0.944600      0.457500     Biso  1.000000 H
   H1         1.0     0.298500      0.944600      0.042500     Biso  1.000000 H
   H1         1.0     0.701500      0.055400      0.957500     Biso  1.000000 H
   H1         1.0     0.798500      0.555400      0.457500     Biso  1.000000 H
   H1         1.0     0.201500      0.444600      0.542500     Biso  1.000000 H
   H1         1.0     0.701500      0.444600      0.957500     Biso  1.000000 H
   H1         1.0     0.298500      0.555400      0.042500     Biso  1.000000 H
   C2         1.0     0.667500      0.032300      0.536900     Biso  1.000000 C
   C2         1.0     0.332500      0.967700      0.463100     Biso  1.000000 C
   C2         1.0     0.832500      0.967700      0.036900     Biso  1.000000 C
   C2         1.0     0.167500      0.032300      0.963100     Biso  1.000000 C
   C2         1.0     0.332500      0.532300      0.463100     Biso  1.000000 C
   C2         1.0     0.667500      0.467700      0.536900     Biso  1.000000 C
   C2         1.0     0.167500      0.467700      0.963100     Biso  1.000000 C
   C2         1.0     0.832500      0.532300      0.036900     Biso  1.000000 C
   H2         1.0     0.783000      0.054800      0.561100     Biso  1.000000 H
   H2         1.0     0.217000      0.945200      0.438900     Biso  1.000000 H
   H2         1.0     0.717000      0.945200      0.061100     Biso  1.000000 H
   H2         1.0     0.283000      0.054800      0.938900     Biso  1.000000 H
   H2         1.0     0.217000      0.554800      0.438900     Biso  1.000000 H
   H2         1.0     0.783000      0.445200      0.561100     Biso  1.000000 H
   H2         1.0     0.283000      0.445200      0.938900     Biso  1.000000 H
   H2         1.0     0.717000      0.554800      0.061100     Biso  1.000000 H
   C3         1.0     0.491100      0.064900      0.565000     Biso  1.000000 C
   C3         1.0     0.508900      0.935100      0.435000     Biso  1.000000 C
   C3         1.0     0.008900      0.935100      0.065000     Biso  1.000000 C
   C3         1.0     0.991100      0.064900      0.935000     Biso  1.000000 C
   C3         1.0     0.508900      0.564900      0.435000     Biso  1.000000 C
   C3         1.0     0.491100      0.435100      0.565000     Biso  1.000000 C
   C3         1.0     0.991100      0.435100      0.935000     Biso  1.000000 C
   C3         1.0     0.008900      0.564900      0.065000     Biso  1.000000 C
   C4         1.0     0.478100      0.136600      0.633300     Biso  1.000000 C
   C4         1.0     0.521900      0.863400      0.366700     Biso  1.000000 C
   C4         1.0     0.021900      0.863400      0.133300     Biso  1.000000 C
   C4         1.0     0.978100      0.136600      0.866700     Biso  1.000000 C
   C4         1.0     0.521900      0.636600      0.366700     Biso  1.000000 C
   C4         1.0     0.478100      0.363400      0.633300     Biso  1.000000 C
   C4         1.0     0.978100      0.363400      0.866700     Biso  1.000000 C
   C4         1.0     0.021900      0.636600      0.133300     Biso  1.000000 C
