#======================================================================

# CRYSTAL DATA

#----------------------------------------------------------------------

data_VESTA_phase_1


_chemical_name_common                  ''
_cell_length_a                         20.70040
_cell_length_b                         20.70040
_cell_length_c                         20.70040
_cell_angle_alpha                      90
_cell_angle_beta                       90
_cell_angle_gamma                      90
_space_group_name_H-M_alt              'P 1'
_space_group_IT_number                 1

loop_
_space_group_symop_operation_xyz
   'x, y, z'

loop_
   _atom_site_label
   _atom_site_occupancy
   _atom_site_fract_x
   _atom_site_fract_y
   _atom_site_fract_z
   _atom_site_adp_type
   _atom_site_B_iso_or_equiv
   _atom_site_type_symbol
   Zr1        1.0     0.119890      0.000000      0.000000     Biso  1.000000 Zr
   Zr1        1.0     0.119890      0.500000      0.500000     Biso  1.000000 Zr
   Zr1        1.0     0.619890      0.000000      0.500000     Biso  1.000000 Zr
   Zr1        1.0     0.619890      0.500000      0.000000     Biso  1.000000 Zr
   Zr1        1.0     0.880110      0.000000      0.000000     Biso  1.000000 Zr
   Zr1        1.0     0.880110      0.500000      0.500000     Biso  1.000000 Zr
   Zr1        1.0     0.380110      0.000000      0.500000     Biso  1.000000 Zr
   Zr1        1.0     0.380110      0.500000      0.000000     Biso  1.000000 Zr
   Zr1        1.0     0.000000      0.119890      0.000000     Biso  1.000000 Zr
   Zr1        1.0     0.000000      0.619890      0.500000     Biso  1.000000 Zr
   Zr1        1.0     0.500000      0.119890      0.500000     Biso  1.000000 Zr
   Zr1        1.0     0.500000      0.619890      0.000000     Biso  1.000000 Zr
   Zr1        1.0     0.000000      0.880110      0.000000     Biso  1.000000 Zr
   Zr1        1.0     0.000000      0.380110      0.500000     Biso  1.000000 Zr
   Zr1        1.0     0.500000      0.880110      0.500000     Biso  1.000000 Zr
   Zr1        1.0     0.500000      0.380110      0.000000     Biso  1.000000 Zr
   Zr1        1.0     0.000000      0.000000      0.119890     Biso  1.000000 Zr
   Zr1        1.0     0.000000      0.500000      0.619890     Biso  1.000000 Zr
   Zr1        1.0     0.500000      0.000000      0.619890     Biso  1.000000 Zr
   Zr1        1.0     0.500000      0.500000      0.119890     Biso  1.000000 Zr
   Zr1        1.0     0.000000      0.000000      0.880110     Biso  1.000000 Zr
   Zr1        1.0     0.000000      0.500000      0.380110     Biso  1.000000 Zr
   Zr1        1.0     0.500000      0.000000      0.380110     Biso  1.000000 Zr
   Zr1        1.0     0.500000      0.500000      0.880110     Biso  1.000000 Zr
   O1         1.0     0.170470      0.000000      0.095300     Biso  1.000000 O
   C3         1.0     0.267500      0.000000      0.184400     Biso  1.000000 C
   H1         1.0     0.278720      0.000000      0.130480     Biso  1.000000 H
   O1         1.0     0.170470      0.500000      0.595300     Biso  1.000000 O
   C3         1.0     0.267500      0.500000      0.684400     Biso  1.000000 C
   H1         1.0     0.278720      0.500000      0.630480     Biso  1.000000 H
   O1         1.0     0.670470      0.000000      0.595300     Biso  1.000000 O
   C3         1.0     0.767500      0.000000      0.684400     Biso  1.000000 C
   H1         1.0     0.778720      0.000000      0.630480     Biso  1.000000 H
   O1         1.0     0.670470      0.500000      0.095300     Biso  1.000000 O
   C3         1.0     0.767500      0.500000      0.184400     Biso  1.000000 C
   H1         1.0     0.778720      0.500000      0.130480     Biso  1.000000 H
   O1         1.0     0.829530      0.000000      0.095300     Biso  1.000000 O
   C3         1.0     0.732500      0.000000      0.184400     Biso  1.000000 C
   H1         1.0     0.721280      0.000000      0.130480     Biso  1.000000 H
   O1         1.0     0.829530      0.500000      0.595300     Biso  1.000000 O
   C3         1.0     0.732500      0.500000      0.684400     Biso  1.000000 C
   H1         1.0     0.721280      0.500000      0.630480     Biso  1.000000 H
   O1         1.0     0.329530      0.000000      0.595300     Biso  1.000000 O
   C3         1.0     0.232500      0.000000      0.684400     Biso  1.000000 C
   H1         1.0     0.221280      0.000000      0.630480     Biso  1.000000 H
   O1         1.0     0.329530      0.500000      0.095300     Biso  1.000000 O
   C3         1.0     0.232500      0.500000      0.184400     Biso  1.000000 C
   H1         1.0     0.221280      0.500000      0.130480     Biso  1.000000 H
   O1         1.0     0.829530      0.000000      0.904700     Biso  1.000000 O
   C3         1.0     0.732500      0.000000      0.815600     Biso  1.000000 C
   H1         1.0     0.721280      0.000000      0.869520     Biso  1.000000 H
   O1         1.0     0.829530      0.500000      0.404700     Biso  1.000000 O
   C3         1.0     0.732500      0.500000      0.315600     Biso  1.000000 C
   H1         1.0     0.721280      0.500000      0.369520     Biso  1.000000 H
   O1         1.0     0.329530      0.000000      0.404700     Biso  1.000000 O
   C3         1.0     0.232500      0.000000      0.315600     Biso  1.000000 C
   H1         1.0     0.221280      0.000000      0.369520     Biso  1.000000 H
   O1         1.0     0.329530      0.500000      0.904700     Biso  1.000000 O
   C3         1.0     0.232500      0.500000      0.815600     Biso  1.000000 C
   H1         1.0     0.221280      0.500000      0.869520     Biso  1.000000 H
   O1         1.0     0.170470      0.000000      0.904700     Biso  1.000000 O
   C3         1.0     0.267500      0.000000      0.815600     Biso  1.000000 C
   H1         1.0     0.278720      0.000000      0.869520     Biso  1.000000 H
   O1         1.0     0.170470      0.500000      0.404700     Biso  1.000000 O
   C3         1.0     0.267500      0.500000      0.315600     Biso  1.000000 C
   H1         1.0     0.278720      0.500000      0.369520     Biso  1.000000 H
   O1         1.0     0.670470      0.000000      0.404700     Biso  1.000000 O
   C3         1.0     0.767500      0.000000      0.315600     Biso  1.000000 C
   H1         1.0     0.778720      0.000000      0.369520     Biso  1.000000 H
   O1         1.0     0.670470      0.500000      0.904700     Biso  1.000000 O
   C3         1.0     0.767500      0.500000      0.815600     Biso  1.000000 C
   H1         1.0     0.778720      0.500000      0.869520     Biso  1.000000 H
   O1         1.0     0.095300      0.170470      0.000000     Biso  1.000000 O
   C3         1.0     0.184400      0.267500      0.000000     Biso  1.000000 C
   H1         1.0     0.130480      0.278720      0.000000     Biso  1.000000 H
   O1         1.0     0.095300      0.670470      0.500000     Biso  1.000000 O
   C3         1.0     0.184400      0.767500      0.500000     Biso  1.000000 C
   H1         1.0     0.130480      0.778720      0.500000     Biso  1.000000 H
   O1         1.0     0.595300      0.170470      0.500000     Biso  1.000000 O
   C3         1.0     0.684400      0.267500      0.500000     Biso  1.000000 C
   H1         1.0     0.630480      0.278720      0.500000     Biso  1.000000 H
   O1         1.0     0.595300      0.670470      0.000000     Biso  1.000000 O
   C3         1.0     0.684400      0.767500      0.000000     Biso  1.000000 C
   H1         1.0     0.630480      0.778720      0.000000     Biso  1.000000 H
   O1         1.0     0.095300      0.829530      0.000000     Biso  1.000000 O
   C3         1.0     0.184400      0.732500      0.000000     Biso  1.000000 C
   H1         1.0     0.130480      0.721280      0.000000     Biso  1.000000 H
   O1         1.0     0.095300      0.329530      0.500000     Biso  1.000000 O
   C3         1.0     0.184400      0.232500      0.500000     Biso  1.000000 C
   H1         1.0     0.130480      0.221280      0.500000     Biso  1.000000 H
   O1         1.0     0.595300      0.829530      0.500000     Biso  1.000000 O
   C3         1.0     0.684400      0.732500      0.500000     Biso  1.000000 C
   H1         1.0     0.630480      0.721280      0.500000     Biso  1.000000 H
   O1         1.0     0.595300      0.329530      0.000000     Biso  1.000000 O
   C3         1.0     0.684400      0.232500      0.000000     Biso  1.000000 C
   H1         1.0     0.630480      0.221280      0.000000     Biso  1.000000 H
   O1         1.0     0.904700      0.829530      0.000000     Biso  1.000000 O
   C3         1.0     0.815600      0.732500      0.000000     Biso  1.000000 C
   H1         1.0     0.869520      0.721280      0.000000     Biso  1.000000 H
   O1         1.0     0.904700      0.329530      0.500000     Biso  1.000000 O
   C3         1.0     0.815600      0.232500      0.500000     Biso  1.000000 C
   H1         1.0     0.869520      0.221280      0.500000     Biso  1.000000 H
   O1         1.0     0.404700      0.829530      0.500000     Biso  1.000000 O
   C3         1.0     0.315600      0.732500      0.500000     Biso  1.000000 C
   H1         1.0     0.369520      0.721280      0.500000     Biso  1.000000 H
   O1         1.0     0.404700      0.329530      0.000000     Biso  1.000000 O
   C3         1.0     0.315600      0.232500      0.000000     Biso  1.000000 C
   H1         1.0     0.369520      0.221280      0.000000     Biso  1.000000 H
   O1         1.0     0.904700      0.170470      0.000000     Biso  1.000000 O
   C3         1.0     0.815600      0.267500      0.000000     Biso  1.000000 C
   H1         1.0     0.869520      0.278720      0.000000     Biso  1.000000 H
   O1         1.0     0.904700      0.670470      0.500000     Biso  1.000000 O
   C3         1.0     0.815600      0.767500      0.500000     Biso  1.000000 C
   H1         1.0     0.869520      0.778720      0.500000     Biso  1.000000 H
   O1         1.0     0.404700      0.170470      0.500000     Biso  1.000000 O
   C3         1.0     0.315600      0.267500      0.500000     Biso  1.000000 C
   H1         1.0     0.369520      0.278720      0.500000     Biso  1.000000 H
   O1         1.0     0.404700      0.670470      0.000000     Biso  1.000000 O
   C3         1.0     0.315600      0.767500      0.000000     Biso  1.000000 C
   H1         1.0     0.369520      0.778720      0.000000     Biso  1.000000 H
   O1         1.0     0.000000      0.095300      0.170470     Biso  1.000000 O
   C3         1.0     0.000000      0.184400      0.267500     Biso  1.000000 C
   H1         1.0     0.000000      0.130480      0.278720     Biso  1.000000 H
   O1         1.0     0.000000      0.595300      0.670470     Biso  1.000000 O
   C3         1.0     0.000000      0.684400      0.767500     Biso  1.000000 C
   H1         1.0     0.000000      0.630480      0.778720     Biso  1.000000 H
   O1         1.0     0.500000      0.095300      0.670470     Biso  1.000000 O
   C3         1.0     0.500000      0.184400      0.767500     Biso  1.000000 C
   H1         1.0     0.500000      0.130480      0.778720     Biso  1.000000 H
   O1         1.0     0.500000      0.595300      0.170470     Biso  1.000000 O
   C3         1.0     0.500000      0.684400      0.267500     Biso  1.000000 C
   H1         1.0     0.500000      0.630480      0.278720     Biso  1.000000 H
   O1         1.0     0.000000      0.095300      0.829530     Biso  1.000000 O
   C3         1.0     0.000000      0.184400      0.732500     Biso  1.000000 C
   H1         1.0     0.000000      0.130480      0.721280     Biso  1.000000 H
   O1         1.0     0.000000      0.595300      0.329530     Biso  1.000000 O
   C3         1.0     0.000000      0.684400      0.232500     Biso  1.000000 C
   H1         1.0     0.000000      0.630480      0.221280     Biso  1.000000 H
   O1         1.0     0.500000      0.095300      0.329530     Biso  1.000000 O
   C3         1.0     0.500000      0.184400      0.232500     Biso  1.000000 C
   H1         1.0     0.500000      0.130480      0.221280     Biso  1.000000 H
   O1         1.0     0.500000      0.595300      0.829530     Biso  1.000000 O
   C3         1.0     0.500000      0.684400      0.732500     Biso  1.000000 C
   H1         1.0     0.500000      0.630480      0.721280     Biso  1.000000 H
   O1         1.0     0.000000      0.904700      0.829530     Biso  1.000000 O
   C3         1.0     0.000000      0.815600      0.732500     Biso  1.000000 C
   H1         1.0     0.000000      0.869520      0.721280     Biso  1.000000 H
   O1         1.0     0.000000      0.404700      0.329530     Biso  1.000000 O
   C3         1.0     0.000000      0.315600      0.232500     Biso  1.000000 C
   H1         1.0     0.000000      0.369520      0.221280     Biso  1.000000 H
   O1         1.0     0.500000      0.904700      0.329530     Biso  1.000000 O
   C3         1.0     0.500000      0.815600      0.232500     Biso  1.000000 C
   H1         1.0     0.500000      0.869520      0.221280     Biso  1.000000 H
   O1         1.0     0.500000      0.404700      0.829530     Biso  1.000000 O
   C3         1.0     0.500000      0.315600      0.732500     Biso  1.000000 C
   H1         1.0     0.500000      0.369520      0.721280     Biso  1.000000 H
   O1         1.0     0.000000      0.904700      0.170470     Biso  1.000000 O
   C3         1.0     0.000000      0.815600      0.267500     Biso  1.000000 C
   H1         1.0     0.000000      0.869520      0.278720     Biso  1.000000 H
   O1         1.0     0.000000      0.404700      0.670470     Biso  1.000000 O
   C3         1.0     0.000000      0.315600      0.767500     Biso  1.000000 C
   H1         1.0     0.000000      0.369520      0.778720     Biso  1.000000 H
   O1         1.0     0.500000      0.904700      0.670470     Biso  1.000000 O
   C3         1.0     0.500000      0.815600      0.767500     Biso  1.000000 C
   H1         1.0     0.500000      0.869520      0.778720     Biso  1.000000 H
   O1         1.0     0.500000      0.404700      0.170470     Biso  1.000000 O
   C3         1.0     0.500000      0.315600      0.267500     Biso  1.000000 C
   H1         1.0     0.500000      0.369520      0.278720     Biso  1.000000 H
   O1         1.0     0.000000      0.170470      0.904700     Biso  1.000000 O
   C3         1.0     0.000000      0.267500      0.815600     Biso  1.000000 C
   H1         1.0     0.000000      0.278720      0.869520     Biso  1.000000 H
   O1         1.0     0.000000      0.670470      0.404700     Biso  1.000000 O
   C3         1.0     0.000000      0.767500      0.315600     Biso  1.000000 C
   H1         1.0     0.000000      0.778720      0.369520     Biso  1.000000 H
   O1         1.0     0.500000      0.170470      0.404700     Biso  1.000000 O
   C3         1.0     0.500000      0.267500      0.315600     Biso  1.000000 C
   H1         1.0     0.500000      0.278720      0.369520     Biso  1.000000 H
   O1         1.0     0.500000      0.670470      0.904700     Biso  1.000000 O
   C3         1.0     0.500000      0.767500      0.815600     Biso  1.000000 C
   H1         1.0     0.500000      0.778720      0.869520     Biso  1.000000 H
   O1         1.0     0.000000      0.829530      0.904700     Biso  1.000000 O
   C3         1.0     0.000000      0.732500      0.815600     Biso  1.000000 C
   H1         1.0     0.000000      0.721280      0.869520     Biso  1.000000 H
   O1         1.0     0.000000      0.329530      0.404700     Biso  1.000000 O
   C3         1.0     0.000000      0.232500      0.315600     Biso  1.000000 C
   H1         1.0     0.000000      0.221280      0.369520     Biso  1.000000 H
   O1         1.0     0.500000      0.829530      0.404700     Biso  1.000000 O
   C3         1.0     0.500000      0.732500      0.315600     Biso  1.000000 C
   H1         1.0     0.500000      0.721280      0.369520     Biso  1.000000 H
   O1         1.0     0.500000      0.329530      0.904700     Biso  1.000000 O
   C3         1.0     0.500000      0.232500      0.815600     Biso  1.000000 C
   H1         1.0     0.500000      0.221280      0.869520     Biso  1.000000 H
   O1         1.0     0.000000      0.829530      0.095300     Biso  1.000000 O
   C3         1.0     0.000000      0.732500      0.184400     Biso  1.000000 C
   H1         1.0     0.000000      0.721280      0.130480     Biso  1.000000 H
   O1         1.0     0.000000      0.329530      0.595300     Biso  1.000000 O
   C3         1.0     0.000000      0.232500      0.684400     Biso  1.000000 C
   H1         1.0     0.000000      0.221280      0.630480     Biso  1.000000 H
   O1         1.0     0.500000      0.829530      0.595300     Biso  1.000000 O
   C3         1.0     0.500000      0.732500      0.684400     Biso  1.000000 C
   H1         1.0     0.500000      0.721280      0.630480     Biso  1.000000 H
   O1         1.0     0.500000      0.329530      0.095300     Biso  1.000000 O
   C3         1.0     0.500000      0.232500      0.184400     Biso  1.000000 C
   H1         1.0     0.500000      0.221280      0.130480     Biso  1.000000 H
   O1         1.0     0.000000      0.170470      0.095300     Biso  1.000000 O
   C3         1.0     0.000000      0.267500      0.184400     Biso  1.000000 C
   H1         1.0     0.000000      0.278720      0.130480     Biso  1.000000 H
   O1         1.0     0.000000      0.670470      0.595300     Biso  1.000000 O
   C3         1.0     0.000000      0.767500      0.684400     Biso  1.000000 C
   H1         1.0     0.000000      0.778720      0.630480     Biso  1.000000 H
   O1         1.0     0.500000      0.170470      0.595300     Biso  1.000000 O
   C3         1.0     0.500000      0.267500      0.684400     Biso  1.000000 C
   H1         1.0     0.500000      0.278720      0.630480     Biso  1.000000 H
   O1         1.0     0.500000      0.670470      0.095300     Biso  1.000000 O
   C3         1.0     0.500000      0.767500      0.184400     Biso  1.000000 C
   H1         1.0     0.500000      0.778720      0.130480     Biso  1.000000 H
   O1         1.0     0.170470      0.095300      0.000000     Biso  1.000000 O
   C3         1.0     0.267500      0.184400      0.000000     Biso  1.000000 C
   H1         1.0     0.278720      0.130480      0.000000     Biso  1.000000 H
   O1         1.0     0.170470      0.595300      0.500000     Biso  1.000000 O
   C3         1.0     0.267500      0.684400      0.500000     Biso  1.000000 C
   H1         1.0     0.278720      0.630480      0.500000     Biso  1.000000 H
   O1         1.0     0.670470      0.095300      0.500000     Biso  1.000000 O
   C3         1.0     0.767500      0.184400      0.500000     Biso  1.000000 C
   H1         1.0     0.778720      0.130480      0.500000     Biso  1.000000 H
   O1         1.0     0.670470      0.595300      0.000000     Biso  1.000000 O
   C3         1.0     0.767500      0.684400      0.000000     Biso  1.000000 C
   H1         1.0     0.778720      0.630480      0.000000     Biso  1.000000 H
   O1         1.0     0.829530      0.095300      0.000000     Biso  1.000000 O
   C3         1.0     0.732500      0.184400      0.000000     Biso  1.000000 C
   H1         1.0     0.721280      0.130480      0.000000     Biso  1.000000 H
   O1         1.0     0.829530      0.595300      0.500000     Biso  1.000000 O
   C3         1.0     0.732500      0.684400      0.500000     Biso  1.000000 C
   H1         1.0     0.721280      0.630480      0.500000     Biso  1.000000 H
   O1         1.0     0.329530      0.095300      0.500000     Biso  1.000000 O
   C3         1.0     0.232500      0.184400      0.500000     Biso  1.000000 C
   H1         1.0     0.221280      0.130480      0.500000     Biso  1.000000 H
   O1         1.0     0.329530      0.595300      0.000000     Biso  1.000000 O
   C3         1.0     0.232500      0.684400      0.000000     Biso  1.000000 C
   H1         1.0     0.221280      0.630480      0.000000     Biso  1.000000 H
   O1         1.0     0.829530      0.904700      0.000000     Biso  1.000000 O
   C3         1.0     0.732500      0.815600      0.000000     Biso  1.000000 C
   H1         1.0     0.721280      0.869520      0.000000     Biso  1.000000 H
   O1         1.0     0.829530      0.404700      0.500000     Biso  1.000000 O
   C3         1.0     0.732500      0.315600      0.500000     Biso  1.000000 C
   H1         1.0     0.721280      0.369520      0.500000     Biso  1.000000 H
   O1         1.0     0.329530      0.904700      0.500000     Biso  1.000000 O
   C3         1.0     0.232500      0.815600      0.500000     Biso  1.000000 C
   H1         1.0     0.221280      0.869520      0.500000     Biso  1.000000 H
   O1         1.0     0.329530      0.404700      0.000000     Biso  1.000000 O
   C3         1.0     0.232500      0.315600      0.000000     Biso  1.000000 C
   H1         1.0     0.221280      0.369520      0.000000     Biso  1.000000 H
   O1         1.0     0.170470      0.904700      0.000000     Biso  1.000000 O
   C3         1.0     0.267500      0.815600      0.000000     Biso  1.000000 C
   H1         1.0     0.278720      0.869520      0.000000     Biso  1.000000 H
   O1         1.0     0.170470      0.404700      0.500000     Biso  1.000000 O
   C3         1.0     0.267500      0.315600      0.500000     Biso  1.000000 C
   H1         1.0     0.278720      0.369520      0.500000     Biso  1.000000 H
   O1         1.0     0.670470      0.904700      0.500000     Biso  1.000000 O
   C3         1.0     0.767500      0.815600      0.500000     Biso  1.000000 C
   H1         1.0     0.778720      0.869520      0.500000     Biso  1.000000 H
   O1         1.0     0.670470      0.404700      0.000000     Biso  1.000000 O
   C3         1.0     0.767500      0.315600      0.000000     Biso  1.000000 C
   H1         1.0     0.778720      0.369520      0.000000     Biso  1.000000 H
   O1         1.0     0.095300      0.000000      0.829530     Biso  1.000000 O
   C3         1.0     0.184400      0.000000      0.732500     Biso  1.000000 C
   H1         1.0     0.130480      0.000000      0.721280     Biso  1.000000 H
   O1         1.0     0.095300      0.500000      0.329530     Biso  1.000000 O
   C3         1.0     0.184400      0.500000      0.232500     Biso  1.000000 C
   H1         1.0     0.130480      0.500000      0.221280     Biso  1.000000 H
   O1         1.0     0.595300      0.000000      0.329530     Biso  1.000000 O
   C3         1.0     0.684400      0.000000      0.232500     Biso  1.000000 C
   H1         1.0     0.630480      0.000000      0.221280     Biso  1.000000 H
   O1         1.0     0.595300      0.500000      0.829530     Biso  1.000000 O
   C3         1.0     0.684400      0.500000      0.732500     Biso  1.000000 C
   H1         1.0     0.630480      0.500000      0.721280     Biso  1.000000 H
   O1         1.0     0.095300      0.000000      0.170470     Biso  1.000000 O
   C3         1.0     0.184400      0.000000      0.267500     Biso  1.000000 C
   H1         1.0     0.130480      0.000000      0.278720     Biso  1.000000 H
   O1         1.0     0.095300      0.500000      0.670470     Biso  1.000000 O
   C3         1.0     0.184400      0.500000      0.767500     Biso  1.000000 C
   H1         1.0     0.130480      0.500000      0.778720     Biso  1.000000 H
   O1         1.0     0.595300      0.000000      0.670470     Biso  1.000000 O
   C3         1.0     0.684400      0.000000      0.767500     Biso  1.000000 C
   H1         1.0     0.630480      0.000000      0.778720     Biso  1.000000 H
   O1         1.0     0.595300      0.500000      0.170470     Biso  1.000000 O
   C3         1.0     0.684400      0.500000      0.267500     Biso  1.000000 C
   H1         1.0     0.630480      0.500000      0.278720     Biso  1.000000 H
   O1         1.0     0.904700      0.000000      0.170470     Biso  1.000000 O
   C3         1.0     0.815600      0.000000      0.267500     Biso  1.000000 C
   H1         1.0     0.869520      0.000000      0.278720     Biso  1.000000 H
   O1         1.0     0.904700      0.500000      0.670470     Biso  1.000000 O
   C3         1.0     0.815600      0.500000      0.767500     Biso  1.000000 C
   H1         1.0     0.869520      0.500000      0.778720     Biso  1.000000 H
   O1         1.0     0.404700      0.000000      0.670470     Biso  1.000000 O
   C3         1.0     0.315600      0.000000      0.767500     Biso  1.000000 C
   H1         1.0     0.369520      0.000000      0.778720     Biso  1.000000 H
   O1         1.0     0.404700      0.500000      0.170470     Biso  1.000000 O
   C3         1.0     0.315600      0.500000      0.267500     Biso  1.000000 C
   H1         1.0     0.369520      0.500000      0.278720     Biso  1.000000 H
   O1         1.0     0.904700      0.000000      0.829530     Biso  1.000000 O
   C3         1.0     0.815600      0.000000      0.732500     Biso  1.000000 C
   H1         1.0     0.869520      0.000000      0.721280     Biso  1.000000 H
   O1         1.0     0.904700      0.500000      0.329530     Biso  1.000000 O
   C3         1.0     0.815600      0.500000      0.232500     Biso  1.000000 C
   H1         1.0     0.869520      0.500000      0.221280     Biso  1.000000 H
   O1         1.0     0.404700      0.000000      0.329530     Biso  1.000000 O
   C3         1.0     0.315600      0.000000      0.232500     Biso  1.000000 C
   H1         1.0     0.369520      0.000000      0.221280     Biso  1.000000 H
   O1         1.0     0.404700      0.500000      0.829530     Biso  1.000000 O
   C3         1.0     0.315600      0.500000      0.732500     Biso  1.000000 C
   H1         1.0     0.369520      0.500000      0.721280     Biso  1.000000 H
   O2         1.0     0.056100      0.443900      0.443900     Biso  1.000000 O
   O2         1.0     0.556100      0.943900      0.443900     Biso  1.000000 O
   O2         1.0     0.556100      0.443900      0.943900     Biso  1.000000 O
   O2         1.0     0.443900      0.056100      0.443900     Biso  1.000000 O
   O2         1.0     0.443900      0.556100      0.943900     Biso  1.000000 O
   O2         1.0     0.943900      0.943900      0.056100     Biso  1.000000 O
   O2         1.0     0.943900      0.443900      0.556100     Biso  1.000000 O
   O2         1.0     0.056100      0.056100      0.056100     Biso  1.000000 O
   O2         1.0     0.556100      0.556100      0.056100     Biso  1.000000 O
   O2         1.0     0.943900      0.056100      0.056100     Biso  1.000000 O
   O2         1.0     0.943900      0.556100      0.556100     Biso  1.000000 O
   O2         1.0     0.443900      0.056100      0.556100     Biso  1.000000 O
   O2         1.0     0.443900      0.556100      0.056100     Biso  1.000000 O
   O2         1.0     0.056100      0.943900      0.056100     Biso  1.000000 O
   O2         1.0     0.056100      0.443900      0.556100     Biso  1.000000 O
   O2         1.0     0.556100      0.943900      0.556100     Biso  1.000000 O
   O2         1.0     0.556100      0.443900      0.056100     Biso  1.000000 O
   O2         1.0     0.943900      0.943900      0.943900     Biso  1.000000 O
   O2         1.0     0.943900      0.443900      0.443900     Biso  1.000000 O
   O2         1.0     0.443900      0.943900      0.443900     Biso  1.000000 O
   O2         1.0     0.443900      0.443900      0.943900     Biso  1.000000 O
   O2         1.0     0.056100      0.056100      0.943900     Biso  1.000000 O
   O2         1.0     0.056100      0.556100      0.443900     Biso  1.000000 O
   O2         1.0     0.556100      0.056100      0.443900     Biso  1.000000 O
   C1         1.0     0.153600      0.000000      0.846400     Biso  1.000000 C
   C1         1.0     0.153600      0.500000      0.346400     Biso  1.000000 C
   C1         1.0     0.653600      0.000000      0.346400     Biso  1.000000 C
   C1         1.0     0.653600      0.500000      0.846400     Biso  1.000000 C
   C1         1.0     0.846400      0.000000      0.846400     Biso  1.000000 C
   C1         1.0     0.846400      0.500000      0.346400     Biso  1.000000 C
   C1         1.0     0.346400      0.000000      0.346400     Biso  1.000000 C
   C1         1.0     0.346400      0.500000      0.846400     Biso  1.000000 C
   C1         1.0     0.846400      0.000000      0.153600     Biso  1.000000 C
   C1         1.0     0.846400      0.500000      0.653600     Biso  1.000000 C
   C1         1.0     0.346400      0.000000      0.653600     Biso  1.000000 C
   C1         1.0     0.346400      0.500000      0.153600     Biso  1.000000 C
   C1         1.0     0.153600      0.000000      0.153600     Biso  1.000000 C
   C1         1.0     0.153600      0.500000      0.653600     Biso  1.000000 C
   C1         1.0     0.653600      0.000000      0.653600     Biso  1.000000 C
   C1         1.0     0.653600      0.500000      0.153600     Biso  1.000000 C
   C1         1.0     0.846400      0.153600      0.000000     Biso  1.000000 C
   C1         1.0     0.846400      0.653600      0.500000     Biso  1.000000 C
   C1         1.0     0.346400      0.153600      0.500000     Biso  1.000000 C
   C1         1.0     0.346400      0.653600      0.000000     Biso  1.000000 C
   C1         1.0     0.846400      0.846400      0.000000     Biso  1.000000 C
   C1         1.0     0.846400      0.346400      0.500000     Biso  1.000000 C
   C1         1.0     0.346400      0.846400      0.500000     Biso  1.000000 C
   C1         1.0     0.346400      0.346400      0.000000     Biso  1.000000 C
   C1         1.0     0.153600      0.846400      0.000000     Biso  1.000000 C
   C1         1.0     0.153600      0.346400      0.500000     Biso  1.000000 C
   C1         1.0     0.653600      0.846400      0.500000     Biso  1.000000 C
   C1         1.0     0.653600      0.346400      0.000000     Biso  1.000000 C
   C1         1.0     0.153600      0.153600      0.000000     Biso  1.000000 C
   C1         1.0     0.153600      0.653600      0.500000     Biso  1.000000 C
   C1         1.0     0.653600      0.153600      0.500000     Biso  1.000000 C
   C1         1.0     0.653600      0.653600      0.000000     Biso  1.000000 C
   C1         1.0     0.000000      0.846400      0.153600     Biso  1.000000 C
   C1         1.0     0.000000      0.346400      0.653600     Biso  1.000000 C
   C1         1.0     0.500000      0.846400      0.653600     Biso  1.000000 C
   C1         1.0     0.500000      0.346400      0.153600     Biso  1.000000 C
   C1         1.0     0.000000      0.846400      0.846400     Biso  1.000000 C
   C1         1.0     0.000000      0.346400      0.346400     Biso  1.000000 C
   C1         1.0     0.500000      0.846400      0.346400     Biso  1.000000 C
   C1         1.0     0.500000      0.346400      0.846400     Biso  1.000000 C
   C1         1.0     0.000000      0.153600      0.846400     Biso  1.000000 C
   C1         1.0     0.000000      0.653600      0.346400     Biso  1.000000 C
   C1         1.0     0.500000      0.153600      0.346400     Biso  1.000000 C
   C1         1.0     0.500000      0.653600      0.846400     Biso  1.000000 C
   C1         1.0     0.000000      0.153600      0.153600     Biso  1.000000 C
   C1         1.0     0.000000      0.653600      0.653600     Biso  1.000000 C
   C1         1.0     0.500000      0.153600      0.653600     Biso  1.000000 C
   C1         1.0     0.500000      0.653600      0.153600     Biso  1.000000 C
   C2         1.0     0.205000      0.000000      0.205000     Biso  1.000000 C
   C2         1.0     0.205000      0.500000      0.705000     Biso  1.000000 C
   C2         1.0     0.705000      0.000000      0.705000     Biso  1.000000 C
   C2         1.0     0.705000      0.500000      0.205000     Biso  1.000000 C
   C2         1.0     0.795000      0.000000      0.205000     Biso  1.000000 C
   C2         1.0     0.795000      0.500000      0.705000     Biso  1.000000 C
   C2         1.0     0.295000      0.000000      0.705000     Biso  1.000000 C
   C2         1.0     0.295000      0.500000      0.205000     Biso  1.000000 C
   C2         1.0     0.795000      0.000000      0.795000     Biso  1.000000 C
   C2         1.0     0.795000      0.500000      0.295000     Biso  1.000000 C
   C2         1.0     0.295000      0.000000      0.295000     Biso  1.000000 C
   C2         1.0     0.295000      0.500000      0.795000     Biso  1.000000 C
   C2         1.0     0.205000      0.000000      0.795000     Biso  1.000000 C
   C2         1.0     0.205000      0.500000      0.295000     Biso  1.000000 C
   C2         1.0     0.705000      0.000000      0.295000     Biso  1.000000 C
   C2         1.0     0.705000      0.500000      0.795000     Biso  1.000000 C
   C2         1.0     0.205000      0.205000      0.000000     Biso  1.000000 C
   C2         1.0     0.205000      0.705000      0.500000     Biso  1.000000 C
   C2         1.0     0.705000      0.205000      0.500000     Biso  1.000000 C
   C2         1.0     0.705000      0.705000      0.000000     Biso  1.000000 C
   C2         1.0     0.205000      0.795000      0.000000     Biso  1.000000 C
   C2         1.0     0.205000      0.295000      0.500000     Biso  1.000000 C
   C2         1.0     0.705000      0.795000      0.500000     Biso  1.000000 C
   C2         1.0     0.705000      0.295000      0.000000     Biso  1.000000 C
   C2         1.0     0.795000      0.795000      0.000000     Biso  1.000000 C
   C2         1.0     0.795000      0.295000      0.500000     Biso  1.000000 C
   C2         1.0     0.295000      0.795000      0.500000     Biso  1.000000 C
   C2         1.0     0.295000      0.295000      0.000000     Biso  1.000000 C
   C2         1.0     0.795000      0.205000      0.000000     Biso  1.000000 C
   C2         1.0     0.795000      0.705000      0.500000     Biso  1.000000 C
   C2         1.0     0.295000      0.205000      0.500000     Biso  1.000000 C
   C2         1.0     0.295000      0.705000      0.000000     Biso  1.000000 C
   C2         1.0     0.000000      0.205000      0.205000     Biso  1.000000 C
   C2         1.0     0.000000      0.705000      0.705000     Biso  1.000000 C
   C2         1.0     0.500000      0.205000      0.705000     Biso  1.000000 C
   C2         1.0     0.500000      0.705000      0.205000     Biso  1.000000 C
   C2         1.0     0.000000      0.205000      0.795000     Biso  1.000000 C
   C2         1.0     0.000000      0.705000      0.295000     Biso  1.000000 C
   C2         1.0     0.500000      0.205000      0.295000     Biso  1.000000 C
   C2         1.0     0.500000      0.705000      0.795000     Biso  1.000000 C
   C2         1.0     0.000000      0.795000      0.795000     Biso  1.000000 C
   C2         1.0     0.000000      0.295000      0.295000     Biso  1.000000 C
   C2         1.0     0.500000      0.795000      0.295000     Biso  1.000000 C
   C2         1.0     0.500000      0.295000      0.795000     Biso  1.000000 C
   C2         1.0     0.000000      0.795000      0.205000     Biso  1.000000 C
   C2         1.0     0.000000      0.295000      0.705000     Biso  1.000000 C
   C2         1.0     0.500000      0.795000      0.705000     Biso  1.000000 C
   C2         1.0     0.500000      0.295000      0.205000     Biso  1.000000 C
