#======================================================================

# CRYSTAL DATA

#----------------------------------------------------------------------

data_VESTA_phase_1


_chemical_name_common                  ''
_cell_length_a                         25.93220
_cell_length_b                         25.93220
_cell_length_c                         6.83650
_cell_angle_alpha                      90
_cell_angle_beta                       90
_cell_angle_gamma                      120
_space_group_name_H-M_alt              'P 1'
_space_group_IT_number                 1

loop_
_space_group_symop_operation_xyz
   'x, y, z'

loop_
   _atom_site_label
   _atom_site_occupancy
   _atom_site_fract_x
   _atom_site_fract_y
   _atom_site_fract_z
   _atom_site_adp_type
   _atom_site_B_iso_or_equiv
   _atom_site_type_symbol
   Zn1        1.0     0.280080      0.982240      0.687100     Biso  1.000000 Zn
   Zn1        1.0     0.719920      0.017760      0.312900     Biso  1.000000 Zn
   Zn1        1.0     0.017760      0.297840      0.687100     Biso  1.000000 Zn
   Zn1        1.0     0.982240      0.702160      0.312900     Biso  1.000000 Zn
   Zn1        1.0     0.702160      0.719920      0.687100     Biso  1.000000 Zn
   Zn1        1.0     0.297840      0.280080      0.312900     Biso  1.000000 Zn
   Zn1        1.0     0.946747      0.315573      0.020433     Biso  1.000000 Zn
   Zn1        1.0     0.386587      0.351093      0.646233     Biso  1.000000 Zn
   Zn1        1.0     0.684427      0.631173      0.020433     Biso  1.000000 Zn
   Zn1        1.0     0.648907      0.035493      0.646233     Biso  1.000000 Zn
   Zn1        1.0     0.368827      0.053253      0.020433     Biso  1.000000 Zn
   Zn1        1.0     0.964507      0.613413      0.646233     Biso  1.000000 Zn
   Zn1        1.0     0.613413      0.648907      0.353767     Biso  1.000000 Zn
   Zn1        1.0     0.053253      0.684427      0.979567     Biso  1.000000 Zn
   Zn1        1.0     0.351093      0.964507      0.353767     Biso  1.000000 Zn
   Zn1        1.0     0.315573      0.368827      0.979567     Biso  1.000000 Zn
   Zn1        1.0     0.035493      0.386587      0.353767     Biso  1.000000 Zn
   Zn1        1.0     0.631173      0.946747      0.979567     Biso  1.000000 Zn
   O1         1.0     0.345470      0.039270      0.476730     Biso  1.000000 O
   O1         1.0     0.654530      0.960730      0.523270     Biso  1.000000 O
   O1         1.0     0.960730      0.306200      0.476730     Biso  1.000000 O
   O1         1.0     0.039270      0.693800      0.523270     Biso  1.000000 O
   O1         1.0     0.693800      0.654530      0.476730     Biso  1.000000 O
   O1         1.0     0.306200      0.345470      0.523270     Biso  1.000000 O
   O1         1.0     0.012137      0.372603      0.810063     Biso  1.000000 O
   O1         1.0     0.321197      0.294063      0.856603     Biso  1.000000 O
   O1         1.0     0.627397      0.639533      0.810063     Biso  1.000000 O
   O1         1.0     0.705937      0.027133      0.856603     Biso  1.000000 O
   O1         1.0     0.360467      0.987863      0.810063     Biso  1.000000 O
   O1         1.0     0.972867      0.678803      0.856603     Biso  1.000000 O
   O1         1.0     0.678803      0.705937      0.143397     Biso  1.000000 O
   O1         1.0     0.987863      0.627397      0.189937     Biso  1.000000 O
   O1         1.0     0.294063      0.972867      0.143397     Biso  1.000000 O
   O1         1.0     0.372603      0.360467      0.189937     Biso  1.000000 O
   O1         1.0     0.027133      0.321197      0.143397     Biso  1.000000 O
   O1         1.0     0.639533      0.012137      0.189937     Biso  1.000000 O
   O2         1.0     0.365000      0.104470      0.237730     Biso  1.000000 O
   O2         1.0     0.635000      0.895530      0.762270     Biso  1.000000 O
   O2         1.0     0.895530      0.260530      0.237730     Biso  1.000000 O
   O2         1.0     0.104470      0.739470      0.762270     Biso  1.000000 O
   O2         1.0     0.739470      0.635000      0.237730     Biso  1.000000 O
   O2         1.0     0.260530      0.365000      0.762270     Biso  1.000000 O
   O2         1.0     0.031667      0.437803      0.571063     Biso  1.000000 O
   O2         1.0     0.301667      0.228863      0.095603     Biso  1.000000 O
   O2         1.0     0.562197      0.593863      0.571063     Biso  1.000000 O
   O2         1.0     0.771137      0.072803      0.095603     Biso  1.000000 O
   O2         1.0     0.406137      0.968333      0.571063     Biso  1.000000 O
   O2         1.0     0.927197      0.698333      0.095603     Biso  1.000000 O
   O2         1.0     0.698333      0.771137      0.904397     Biso  1.000000 O
   O2         1.0     0.968333      0.562197      0.428937     Biso  1.000000 O
   O2         1.0     0.228863      0.927197      0.904397     Biso  1.000000 O
   O2         1.0     0.437803      0.406137      0.428937     Biso  1.000000 O
   O2         1.0     0.072803      0.301667      0.904397     Biso  1.000000 O
   O2         1.0     0.593863      0.031667      0.428937     Biso  1.000000 O
   O3         1.0     0.311450      0.059840      0.834040     Biso  1.000000 O
   O3         1.0     0.688550      0.940160      0.165960     Biso  1.000000 O
   O3         1.0     0.940160      0.251610      0.834040     Biso  1.000000 O
   O3         1.0     0.059840      0.748390      0.165960     Biso  1.000000 O
   O3         1.0     0.748390      0.688550      0.834040     Biso  1.000000 O
   O3         1.0     0.251610      0.311450      0.165960     Biso  1.000000 O
   O3         1.0     0.978117      0.393173      0.167373     Biso  1.000000 O
   O3         1.0     0.355217      0.273493      0.499293     Biso  1.000000 O
   O3         1.0     0.606827      0.584943      0.167373     Biso  1.000000 O
   O3         1.0     0.726507      0.081723      0.499293     Biso  1.000000 O
   O3         1.0     0.415057      0.021883      0.167373     Biso  1.000000 O
   O3         1.0     0.918277      0.644783      0.499293     Biso  1.000000 O
   O3         1.0     0.644783      0.726507      0.500707     Biso  1.000000 O
   O3         1.0     0.021883      0.606827      0.832627     Biso  1.000000 O
   O3         1.0     0.273493      0.918277      0.500707     Biso  1.000000 O
   O3         1.0     0.393173      0.415057      0.832627     Biso  1.000000 O
   O3         1.0     0.081723      0.355217      0.500707     Biso  1.000000 O
   O3         1.0     0.584943      0.978117      0.832627     Biso  1.000000 O
   C1         1.0     0.350670      0.087270      0.411730     Biso  1.000000 C
   C1         1.0     0.649330      0.912730      0.588270     Biso  1.000000 C
   C1         1.0     0.912730      0.263400      0.411730     Biso  1.000000 C
   C1         1.0     0.087270      0.736600      0.588270     Biso  1.000000 C
   C1         1.0     0.736600      0.649330      0.411730     Biso  1.000000 C
   C1         1.0     0.263400      0.350670      0.588270     Biso  1.000000 C
   C1         1.0     0.017337      0.420603      0.745063     Biso  1.000000 C
   C1         1.0     0.315997      0.246063      0.921603     Biso  1.000000 C
   C1         1.0     0.579397      0.596733      0.745063     Biso  1.000000 C
   C1         1.0     0.753937      0.069933      0.921603     Biso  1.000000 C
   C1         1.0     0.403267      0.982663      0.745063     Biso  1.000000 C
   C1         1.0     0.930067      0.684003      0.921603     Biso  1.000000 C
   C1         1.0     0.684003      0.753937      0.078397     Biso  1.000000 C
   C1         1.0     0.982663      0.579397      0.254937     Biso  1.000000 C
   C1         1.0     0.246063      0.930067      0.078397     Biso  1.000000 C
   C1         1.0     0.420603      0.403267      0.254937     Biso  1.000000 C
   C1         1.0     0.069933      0.315997      0.078397     Biso  1.000000 C
   C1         1.0     0.596733      0.017337      0.254937     Biso  1.000000 C
   C2         1.0     0.339610      0.125890      0.548730     Biso  1.000000 C
   C2         1.0     0.660390      0.874110      0.451270     Biso  1.000000 C
   C2         1.0     0.874110      0.213720      0.548730     Biso  1.000000 C
   C2         1.0     0.125890      0.786280      0.451270     Biso  1.000000 C
   C2         1.0     0.786280      0.660390      0.548730     Biso  1.000000 C
   C2         1.0     0.213720      0.339610      0.451270     Biso  1.000000 C
   C2         1.0     0.006277      0.459223      0.882063     Biso  1.000000 C
   C2         1.0     0.327057      0.207443      0.784603     Biso  1.000000 C
   C2         1.0     0.540777      0.547053      0.882063     Biso  1.000000 C
   C2         1.0     0.792557      0.119613      0.784603     Biso  1.000000 C
   C2         1.0     0.452947      0.993723      0.882063     Biso  1.000000 C
   C2         1.0     0.880387      0.672943      0.784603     Biso  1.000000 C
   C2         1.0     0.672943      0.792557      0.215397     Biso  1.000000 C
   C2         1.0     0.993723      0.540777      0.117937     Biso  1.000000 C
   C2         1.0     0.207443      0.880387      0.215397     Biso  1.000000 C
   C2         1.0     0.459223      0.452947      0.117937     Biso  1.000000 C
   C2         1.0     0.119613      0.327057      0.215397     Biso  1.000000 C
   C2         1.0     0.547053      0.006277      0.117937     Biso  1.000000 C
   C3         1.0     0.322980      0.111220      0.747630     Biso  1.000000 C
   C3         1.0     0.677020      0.888780      0.252370     Biso  1.000000 C
   C3         1.0     0.888780      0.211760      0.747630     Biso  1.000000 C
   C3         1.0     0.111220      0.788240      0.252370     Biso  1.000000 C
   C3         1.0     0.788240      0.677020      0.747630     Biso  1.000000 C
   C3         1.0     0.211760      0.322980      0.252370     Biso  1.000000 C
   C3         1.0     0.989647      0.444553      0.080963     Biso  1.000000 C
   C3         1.0     0.343687      0.222113      0.585703     Biso  1.000000 C
   C3         1.0     0.555447      0.545093      0.080963     Biso  1.000000 C
   C3         1.0     0.777887      0.121573      0.585703     Biso  1.000000 C
   C3         1.0     0.454907      0.010353      0.080963     Biso  1.000000 C
   C3         1.0     0.878427      0.656313      0.585703     Biso  1.000000 C
   C3         1.0     0.656313      0.777887      0.414297     Biso  1.000000 C
   C3         1.0     0.010353      0.555447      0.919037     Biso  1.000000 C
   C3         1.0     0.222113      0.878427      0.414297     Biso  1.000000 C
   C3         1.0     0.444553      0.454907      0.919037     Biso  1.000000 C
   C3         1.0     0.121573      0.343687      0.414297     Biso  1.000000 C
   C3         1.0     0.545093      0.989647      0.919037     Biso  1.000000 C
   C4         1.0     0.317830      0.153290      0.859230     Biso  1.000000 C
   C4         1.0     0.682170      0.846710      0.140770     Biso  1.000000 C
   C4         1.0     0.846710      0.164540      0.859230     Biso  1.000000 C
   C4         1.0     0.153290      0.835460      0.140770     Biso  1.000000 C
   C4         1.0     0.835460      0.682170      0.859230     Biso  1.000000 C
   C4         1.0     0.164540      0.317830      0.140770     Biso  1.000000 C
   C4         1.0     0.984497      0.486623      0.192563     Biso  1.000000 C
   C4         1.0     0.348837      0.180043      0.474103     Biso  1.000000 C
   C4         1.0     0.513377      0.497873      0.192563     Biso  1.000000 C
   C4         1.0     0.819957      0.168793      0.474103     Biso  1.000000 C
   C4         1.0     0.502127      0.015503      0.192563     Biso  1.000000 C
   C4         1.0     0.831207      0.651163      0.474103     Biso  1.000000 C
   C4         1.0     0.651163      0.819957      0.525897     Biso  1.000000 C
   C4         1.0     0.015503      0.513377      0.807437     Biso  1.000000 C
   C4         1.0     0.180043      0.831207      0.525897     Biso  1.000000 C
   C4         1.0     0.486623      0.502127      0.807437     Biso  1.000000 C
   C4         1.0     0.168793      0.348837      0.525897     Biso  1.000000 C
   C4         1.0     0.497873      0.984497      0.807437     Biso  1.000000 C
   H1         1.0     0.307470      0.144730      0.993330     Biso  1.000000 H
   H1         1.0     0.692530      0.855270      0.006670     Biso  1.000000 H
   H1         1.0     0.855270      0.162740      0.993330     Biso  1.000000 H
   H1         1.0     0.144730      0.837260      0.006670     Biso  1.000000 H
   H1         1.0     0.837260      0.692530      0.993330     Biso  1.000000 H
   H1         1.0     0.162740      0.307470      0.006670     Biso  1.000000 H
   H1         1.0     0.974137      0.478063      0.326663     Biso  1.000000 H
   H1         1.0     0.359197      0.188603      0.340003     Biso  1.000000 H
   H1         1.0     0.521937      0.496073      0.326663     Biso  1.000000 H
   H1         1.0     0.811397      0.170593      0.340003     Biso  1.000000 H
   H1         1.0     0.503927      0.025863      0.326663     Biso  1.000000 H
   H1         1.0     0.829407      0.640803      0.340003     Biso  1.000000 H
   H1         1.0     0.640803      0.811397      0.659997     Biso  1.000000 H
   H1         1.0     0.025863      0.521937      0.673337     Biso  1.000000 H
   H1         1.0     0.188603      0.829407      0.659997     Biso  1.000000 H
   H1         1.0     0.478063      0.503927      0.673337     Biso  1.000000 H
   H1         1.0     0.170593      0.359197      0.659997     Biso  1.000000 H
   H1         1.0     0.496073      0.974137      0.673337     Biso  1.000000 H
