#======================================================================

# CRYSTAL DATA

#----------------------------------------------------------------------

data_VESTA_phase_1


_chemical_name_common                  ''
_cell_length_a                         6.72300
_cell_length_b                         15.48100
_cell_length_c                         12.43500
_cell_angle_alpha                      90
_cell_angle_beta                       102.82500
_cell_angle_gamma                      90
_space_group_name_H-M_alt              'P 1'
_space_group_IT_number                 1

loop_
_space_group_symop_operation_xyz
   'x, y, z'

loop_
   _atom_site_label
   _atom_site_occupancy
   _atom_site_fract_x
   _atom_site_fract_y
   _atom_site_fract_z
   _atom_site_adp_type
   _atom_site_B_iso_or_equiv
   _atom_site_type_symbol
   Zn1        1.0     0.200280      0.005080      0.077170     Biso  1.000000 Zn
   Zn1        1.0     0.799720      0.994920      0.922830     Biso  1.000000 Zn
   Zn1        1.0     0.299720      0.505080      0.422830     Biso  1.000000 Zn
   Zn1        1.0     0.700280      0.494920      0.577170     Biso  1.000000 Zn
   O1         1.0     0.060500      0.105070      0.133200     Biso  1.000000 O
   O1         1.0     0.939500      0.894930      0.866800     Biso  1.000000 O
   O1         1.0     0.439500      0.605070      0.366800     Biso  1.000000 O
   O1         1.0     0.560500      0.394930      0.633200     Biso  1.000000 O
   O2         1.0     0.756600      0.097090      0.020820     Biso  1.000000 O
   O2         1.0     0.243400      0.902910      0.979180     Biso  1.000000 O
   O2         1.0     0.743400      0.597090      0.479180     Biso  1.000000 O
   O2         1.0     0.256600      0.402910      0.520820     Biso  1.000000 O
   O3         1.0     0.715800      0.420570      0.441170     Biso  1.000000 O
   O3         1.0     0.284200      0.579430      0.558830     Biso  1.000000 O
   O3         1.0     0.784200      0.920570      0.058830     Biso  1.000000 O
   O3         1.0     0.215800      0.079430      0.941170     Biso  1.000000 O
   O4         1.0     0.412400      0.420020      0.327800     Biso  1.000000 O
   O4         1.0     0.587600      0.579980      0.672200     Biso  1.000000 O
   O4         1.0     0.087600      0.920020      0.172200     Biso  1.000000 O
   O4         1.0     0.912400      0.079980      0.827800     Biso  1.000000 O
   C1         1.0     0.879900      0.129060      0.101000     Biso  1.000000 C
   C1         1.0     0.120100      0.870940      0.899000     Biso  1.000000 C
   C1         1.0     0.620100      0.629060      0.399000     Biso  1.000000 C
   C1         1.0     0.379900      0.370940      0.601000     Biso  1.000000 C
   C2         1.0     0.805400      0.201120      0.162400     Biso  1.000000 C
   C2         1.0     0.194600      0.798880      0.837600     Biso  1.000000 C
   C2         1.0     0.694600      0.701120      0.337600     Biso  1.000000 C
   C2         1.0     0.305400      0.298880      0.662400     Biso  1.000000 C
   C3         1.0     0.939500      0.242400      0.248400     Biso  1.000000 C
   C3         1.0     0.060500      0.757600      0.751600     Biso  1.000000 C
   C3         1.0     0.560500      0.742400      0.251600     Biso  1.000000 C
   C3         1.0     0.439500      0.257600      0.748400     Biso  1.000000 C
   H3         1.0     0.077100      0.227800      0.264000     Biso  1.000000 H
   H3         1.0     0.922900      0.772200      0.736000     Biso  1.000000 H
   H3         1.0     0.422900      0.727800      0.236000     Biso  1.000000 H
   H3         1.0     0.577100      0.272200      0.764000     Biso  1.000000 H
   C4         1.0     0.871700      0.304400      0.310600     Biso  1.000000 C
   C4         1.0     0.128300      0.695600      0.689400     Biso  1.000000 C
   C4         1.0     0.628300      0.804400      0.189400     Biso  1.000000 C
   C4         1.0     0.371700      0.195600      0.810600     Biso  1.000000 C
   H4         1.0     0.963000      0.330600      0.368600     Biso  1.000000 H
   H4         1.0     0.037000      0.669400      0.631400     Biso  1.000000 H
   H4         1.0     0.537000      0.830600      0.131400     Biso  1.000000 H
   H4         1.0     0.463000      0.169400      0.868600     Biso  1.000000 H
   C5         1.0     0.667200      0.328450      0.287300     Biso  1.000000 C
   C5         1.0     0.332800      0.671550      0.712700     Biso  1.000000 C
   C5         1.0     0.832800      0.828450      0.212700     Biso  1.000000 C
   C5         1.0     0.167200      0.171550      0.787300     Biso  1.000000 C
   C6         1.0     0.533600      0.289100      0.199400     Biso  1.000000 C
   C6         1.0     0.466400      0.710900      0.800600     Biso  1.000000 C
   C6         1.0     0.966400      0.789100      0.300600     Biso  1.000000 C
   C6         1.0     0.033600      0.210900      0.699400     Biso  1.000000 C
   H6         1.0     0.397100      0.305500      0.181800     Biso  1.000000 H
   H6         1.0     0.602900      0.694500      0.818200     Biso  1.000000 H
   H6         1.0     0.102900      0.805500      0.318200     Biso  1.000000 H
   H6         1.0     0.897100      0.194500      0.681800     Biso  1.000000 H
   C7         1.0     0.601900      0.225900      0.137800     Biso  1.000000 C
   C7         1.0     0.398100      0.774100      0.862200     Biso  1.000000 C
   C7         1.0     0.898100      0.725900      0.362200     Biso  1.000000 C
   C7         1.0     0.101900      0.274100      0.637800     Biso  1.000000 C
   H7         1.0     0.510900      0.199900      0.079600     Biso  1.000000 H
   H7         1.0     0.489100      0.800100      0.920400     Biso  1.000000 H
   H7         1.0     0.989100      0.699900      0.420400     Biso  1.000000 H
   H7         1.0     0.010900      0.300100      0.579600     Biso  1.000000 H
   C8         1.0     0.592000      0.394400      0.357000     Biso  1.000000 C
   C8         1.0     0.408000      0.605600      0.643000     Biso  1.000000 C
   C8         1.0     0.908000      0.894400      0.143000     Biso  1.000000 C
   C8         1.0     0.092000      0.105600      0.857000     Biso  1.000000 C
