#======================================================================

# CRYSTAL DATA

#----------------------------------------------------------------------

data_VESTA_phase_1


_chemical_name_common                  ''
_cell_length_a                         26.19000
_cell_length_b                         26.19000
_cell_length_c                         6.93500
_cell_angle_alpha                      90
_cell_angle_beta                       90
_cell_angle_gamma                      120
_space_group_name_H-M_alt              'P 1'
_space_group_IT_number                 1

loop_
_space_group_symop_operation_xyz
   'x, y, z'

loop_
   _atom_site_label
   _atom_site_occupancy
   _atom_site_fract_x
   _atom_site_fract_y
   _atom_site_fract_z
   _atom_site_adp_type
   _atom_site_B_iso_or_equiv
   _atom_site_type_symbol
   Zn1        1.0     0.641590      0.685140      0.471890     Biso  1.000000 Zn
   Zn1        1.0     0.358410      0.314860      0.528110     Biso  1.000000 Zn
   Zn1        1.0     0.314860      0.956450      0.471890     Biso  1.000000 Zn
   Zn1        1.0     0.685140      0.043550      0.528110     Biso  1.000000 Zn
   Zn1        1.0     0.043550      0.358410      0.471890     Biso  1.000000 Zn
   Zn1        1.0     0.956450      0.641590      0.528110     Biso  1.000000 Zn
   Zn1        1.0     0.308257      0.018473      0.805223     Biso  1.000000 Zn
   Zn1        1.0     0.025077      0.648193      0.861443     Biso  1.000000 Zn
   Zn1        1.0     0.981527      0.289783      0.805223     Biso  1.000000 Zn
   Zn1        1.0     0.351807      0.376883      0.861443     Biso  1.000000 Zn
   Zn1        1.0     0.710217      0.691743      0.805223     Biso  1.000000 Zn
   Zn1        1.0     0.623117      0.974923      0.861443     Biso  1.000000 Zn
   Zn1        1.0     0.974923      0.351807      0.138557     Biso  1.000000 Zn
   Zn1        1.0     0.691743      0.981527      0.194777     Biso  1.000000 Zn
   Zn1        1.0     0.648193      0.623117      0.138557     Biso  1.000000 Zn
   Zn1        1.0     0.018473      0.710217      0.194777     Biso  1.000000 Zn
   Zn1        1.0     0.376883      0.025077      0.138557     Biso  1.000000 Zn
   Zn1        1.0     0.289783      0.308257      0.194777     Biso  1.000000 Zn
   O1         1.0     0.969430      0.297760      0.360380     Biso  1.000000 O
   O1         1.0     0.030570      0.702240      0.639620     Biso  1.000000 O
   O1         1.0     0.702240      0.671670      0.360380     Biso  1.000000 O
   O1         1.0     0.297760      0.328330      0.639620     Biso  1.000000 O
   O1         1.0     0.328330      0.030570      0.360380     Biso  1.000000 O
   O1         1.0     0.671670      0.969430      0.639620     Biso  1.000000 O
   O1         1.0     0.636097      0.631093      0.693713     Biso  1.000000 O
   O1         1.0     0.697237      0.035573      0.972953     Biso  1.000000 O
   O1         1.0     0.368907      0.005003      0.693713     Biso  1.000000 O
   O1         1.0     0.964427      0.661663      0.972953     Biso  1.000000 O
   O1         1.0     0.994997      0.363903      0.693713     Biso  1.000000 O
   O1         1.0     0.338337      0.302763      0.972953     Biso  1.000000 O
   O1         1.0     0.302763      0.964427      0.027047     Biso  1.000000 O
   O1         1.0     0.363903      0.368907      0.306287     Biso  1.000000 O
   O1         1.0     0.035573      0.338337      0.027047     Biso  1.000000 O
   O1         1.0     0.631093      0.994997      0.306287     Biso  1.000000 O
   O1         1.0     0.661663      0.697237      0.027047     Biso  1.000000 O
   O1         1.0     0.005003      0.636097      0.306287     Biso  1.000000 O
   O2         1.0     0.927630      0.230480      0.610200     Biso  1.000000 O
   O2         1.0     0.072370      0.769520      0.389800     Biso  1.000000 O
   O2         1.0     0.769520      0.697150      0.610200     Biso  1.000000 O
   O2         1.0     0.230480      0.302850      0.389800     Biso  1.000000 O
   O2         1.0     0.302850      0.072370      0.610200     Biso  1.000000 O
   O2         1.0     0.697150      0.927630      0.389800     Biso  1.000000 O
   O2         1.0     0.594297      0.563813      0.943533     Biso  1.000000 O
   O2         1.0     0.739037      0.102853      0.723133     Biso  1.000000 O
   O2         1.0     0.436187      0.030483      0.943533     Biso  1.000000 O
   O2         1.0     0.897147      0.636183      0.723133     Biso  1.000000 O
   O2         1.0     0.969517      0.405703      0.943533     Biso  1.000000 O
   O2         1.0     0.363817      0.260963      0.723133     Biso  1.000000 O
   O2         1.0     0.260963      0.897147      0.276867     Biso  1.000000 O
   O2         1.0     0.405703      0.436187      0.056467     Biso  1.000000 O
   O2         1.0     0.102853      0.363817      0.276867     Biso  1.000000 O
   O2         1.0     0.563813      0.969517      0.056467     Biso  1.000000 O
   O2         1.0     0.636183      0.739037      0.276867     Biso  1.000000 O
   O2         1.0     0.030483      0.594297      0.056467     Biso  1.000000 O
   O3         1.0     0.254940      0.942050      0.673830     Biso  1.000000 O
   O3         1.0     0.745060      0.057950      0.326170     Biso  1.000000 O
   O3         1.0     0.057950      0.312890      0.673830     Biso  1.000000 O
   O3         1.0     0.942050      0.687110      0.326170     Biso  1.000000 O
   O3         1.0     0.687110      0.745060      0.673830     Biso  1.000000 O
   O3         1.0     0.312890      0.254940      0.326170     Biso  1.000000 O
   O3         1.0     0.921607      0.275383      0.007163     Biso  1.000000 O
   O3         1.0     0.411727      0.391283      0.659503     Biso  1.000000 O
   O3         1.0     0.724617      0.646223      0.007163     Biso  1.000000 O
   O3         1.0     0.608717      0.020443      0.659503     Biso  1.000000 O
   O3         1.0     0.353777      0.078393      0.007163     Biso  1.000000 O
   O3         1.0     0.979557      0.588273      0.659503     Biso  1.000000 O
   O3         1.0     0.588273      0.608717      0.340497     Biso  1.000000 O
   O3         1.0     0.078393      0.724617      0.992837     Biso  1.000000 O
   O3         1.0     0.391283      0.979557      0.340497     Biso  1.000000 O
   O3         1.0     0.275383      0.353777      0.992837     Biso  1.000000 O
   O3         1.0     0.020443      0.411727      0.340497     Biso  1.000000 O
   O3         1.0     0.646223      0.921607      0.992837     Biso  1.000000 O
   C1         1.0     0.926670      0.245800      0.427030     Biso  1.000000 C
   C1         1.0     0.073330      0.754200      0.572970     Biso  1.000000 C
   C1         1.0     0.754200      0.680870      0.427030     Biso  1.000000 C
   C1         1.0     0.245800      0.319130      0.572970     Biso  1.000000 C
   C1         1.0     0.319130      0.073330      0.427030     Biso  1.000000 C
   C1         1.0     0.680870      0.926670      0.572970     Biso  1.000000 C
   C1         1.0     0.593337      0.579133      0.760363     Biso  1.000000 C
   C1         1.0     0.739997      0.087533      0.906303     Biso  1.000000 C
   C1         1.0     0.420867      0.014203      0.760363     Biso  1.000000 C
   C1         1.0     0.912467      0.652463      0.906303     Biso  1.000000 C
   C1         1.0     0.985797      0.406663      0.760363     Biso  1.000000 C
   C1         1.0     0.347537      0.260003      0.906303     Biso  1.000000 C
   C1         1.0     0.260003      0.912467      0.093697     Biso  1.000000 C
   C1         1.0     0.406663      0.420867      0.239637     Biso  1.000000 C
   C1         1.0     0.087533      0.347537      0.093697     Biso  1.000000 C
   C1         1.0     0.579133      0.985797      0.239637     Biso  1.000000 C
   C1         1.0     0.652463      0.739997      0.093697     Biso  1.000000 C
   C1         1.0     0.014203      0.593337      0.239637     Biso  1.000000 C
   C2         1.0     0.879180      0.207110      0.290830     Biso  1.000000 C
   C2         1.0     0.120820      0.792890      0.709170     Biso  1.000000 C
   C2         1.0     0.792890      0.672070      0.290830     Biso  1.000000 C
   C2         1.0     0.207110      0.327930      0.709170     Biso  1.000000 C
   C2         1.0     0.327930      0.120820      0.290830     Biso  1.000000 C
   C2         1.0     0.672070      0.879180      0.709170     Biso  1.000000 C
   C2         1.0     0.545847      0.540443      0.624163     Biso  1.000000 C
   C2         1.0     0.787487      0.126223      0.042503     Biso  1.000000 C
   C2         1.0     0.459557      0.005403      0.624163     Biso  1.000000 C
   C2         1.0     0.873777      0.661263      0.042503     Biso  1.000000 C
   C2         1.0     0.994597      0.454153      0.624163     Biso  1.000000 C
   C2         1.0     0.338737      0.212513      0.042503     Biso  1.000000 C
   C2         1.0     0.212513      0.873777      0.957497     Biso  1.000000 C
   C2         1.0     0.454153      0.459557      0.375837     Biso  1.000000 C
   C2         1.0     0.126223      0.338737      0.957497     Biso  1.000000 C
   C2         1.0     0.540443      0.994597      0.375837     Biso  1.000000 C
   C2         1.0     0.661263      0.787487      0.957497     Biso  1.000000 C
   C2         1.0     0.005403      0.545847      0.375837     Biso  1.000000 C
   C3         1.0     0.212540      0.889260      0.754900     Biso  1.000000 C
   C3         1.0     0.787460      0.110740      0.245100     Biso  1.000000 C
   C3         1.0     0.110740      0.323280      0.754900     Biso  1.000000 C
   C3         1.0     0.889260      0.676720      0.245100     Biso  1.000000 C
   C3         1.0     0.676720      0.787460      0.754900     Biso  1.000000 C
   C3         1.0     0.323280      0.212540      0.245100     Biso  1.000000 C
   C3         1.0     0.879207      0.222593      0.088233     Biso  1.000000 C
   C3         1.0     0.454127      0.444073      0.578433     Biso  1.000000 C
   C3         1.0     0.777407      0.656613      0.088233     Biso  1.000000 C
   C3         1.0     0.555927      0.010053      0.578433     Biso  1.000000 C
   C3         1.0     0.343387      0.120793      0.088233     Biso  1.000000 C
   C3         1.0     0.989947      0.545873      0.578433     Biso  1.000000 C
   C3         1.0     0.545873      0.555927      0.421567     Biso  1.000000 C
   C3         1.0     0.120793      0.777407      0.911767     Biso  1.000000 C
   C3         1.0     0.444073      0.989947      0.421567     Biso  1.000000 C
   C3         1.0     0.222593      0.343387      0.911767     Biso  1.000000 C
   C3         1.0     0.010053      0.454127      0.421567     Biso  1.000000 C
   C3         1.0     0.656613      0.879207      0.911767     Biso  1.000000 C
   C4         1.0     0.166300      0.847590      0.635580     Biso  1.000000 C
   C4         1.0     0.833700      0.152410      0.364420     Biso  1.000000 C
   C4         1.0     0.152410      0.318710      0.635580     Biso  1.000000 C
   C4         1.0     0.847590      0.681290      0.364420     Biso  1.000000 C
   C4         1.0     0.681290      0.833700      0.635580     Biso  1.000000 C
   C4         1.0     0.318710      0.166300      0.364420     Biso  1.000000 C
   C4         1.0     0.832967      0.180923      0.968913     Biso  1.000000 C
   C4         1.0     0.500367      0.485743      0.697753     Biso  1.000000 C
   C4         1.0     0.819077      0.652043      0.968913     Biso  1.000000 C
   C4         1.0     0.514257      0.014623      0.697753     Biso  1.000000 C
   C4         1.0     0.347957      0.167033      0.968913     Biso  1.000000 C
   C4         1.0     0.985377      0.499633      0.697753     Biso  1.000000 C
   C4         1.0     0.499633      0.514257      0.302247     Biso  1.000000 C
   C4         1.0     0.167033      0.819077      0.031087     Biso  1.000000 C
   C4         1.0     0.485743      0.985377      0.302247     Biso  1.000000 C
   C4         1.0     0.180923      0.347957      0.031087     Biso  1.000000 C
   C4         1.0     0.014623      0.500367      0.302247     Biso  1.000000 C
   C4         1.0     0.652043      0.832967      0.031087     Biso  1.000000 C
   H1         1.0     0.165290      0.858030      0.479180     Biso  1.000000 H
   H1         1.0     0.834710      0.141970      0.520820     Biso  1.000000 H
   H1         1.0     0.141970      0.307260      0.479180     Biso  1.000000 H
   H1         1.0     0.858030      0.692740      0.520820     Biso  1.000000 H
   H1         1.0     0.692740      0.834710      0.479180     Biso  1.000000 H
   H1         1.0     0.307260      0.165290      0.520820     Biso  1.000000 H
   H1         1.0     0.831957      0.191363      0.812513     Biso  1.000000 H
   H1         1.0     0.501377      0.475303      0.854153     Biso  1.000000 H
   H1         1.0     0.808637      0.640593      0.812513     Biso  1.000000 H
   H1         1.0     0.524697      0.026073      0.854153     Biso  1.000000 H
   H1         1.0     0.359407      0.168043      0.812513     Biso  1.000000 H
   H1         1.0     0.973927      0.498623      0.854153     Biso  1.000000 H
   H1         1.0     0.498623      0.524697      0.145847     Biso  1.000000 H
   H1         1.0     0.168043      0.808637      0.187487     Biso  1.000000 H
   H1         1.0     0.475303      0.973927      0.145847     Biso  1.000000 H
   H1         1.0     0.191363      0.359407      0.187487     Biso  1.000000 H
   H1         1.0     0.026073      0.501377      0.145847     Biso  1.000000 H
   H1         1.0     0.640593      0.831957      0.187487     Biso  1.000000 H
